1C9H_RAP_A_108
  RCSB PDB07141709183D
Coordinates from PDB:1C9H:A:108 Model:1 without hydrogens
 65 68  0  0  0  0            999 V2000
  -17.5190  -10.9490  -13.8170   C 0  0  0  0  0  0  0  0  0  0  0  0
  -14.0190  -12.9700   -6.7660   O 0  0  0  0  0  0  0  0  0  0  0  0
  -20.8100   -6.2690   -9.7680   C 0  0  0  0  0  0  0  0  0  0  0  0
  -21.7480   -6.1040  -10.9680   C 0  0  0  0  0  0  0  0  0  0  0  0
  -24.7800  -11.6120  -17.3530   C 0  0  0  0  0  0  0  0  0  0  0  0
  -20.7610   -9.9750  -16.4800   C 0  0  0  0  0  0  0  0  0  0  0  0
  -23.4440  -17.3700  -11.2680   C 0  0  0  0  0  0  0  0  0  0  0  0
  -14.7750  -11.4320   -8.4970   C 0  0  0  0  0  0  0  0  0  0  0  0
  -18.6980  -17.3970   -7.9510   O 0  0  0  0  0  0  0  0  0  0  0  0
  -15.7900  -13.8110  -10.0600   C 0  0  0  0  0  0  0  0  0  0  0  0
  -22.6720  -10.0850  -14.8240   C 0  0  0  0  0  0  0  0  0  0  0  0
  -16.3220  -12.3760  -10.3460   C 0  0  0  0  0  0  0  0  0  0  0  0
  -20.8510  -13.4770   -9.7200   C 0  0  0  0  0  0  0  0  0  0  0  0
  -24.4200  -10.7940  -16.2790   O 0  0  0  0  0  0  0  0  0  0  0  0
  -21.9670   -9.2110  -15.8540   C 0  0  0  0  0  0  0  0  0  0  0  0
  -19.7750   -9.0750  -17.2460   C 0  0  0  0  0  0  0  0  0  0  0  0
  -19.2340  -15.2930   -8.9310   C 0  0  0  0  0  0  0  0  0  0  0  0
  -21.0230  -16.8450   -7.7740   C 0  0  0  0  0  0  0  0  0  0  0  0
  -19.9240  -15.1150  -11.4140   C 0  0  0  0  0  0  0  0  0  0  0  0
  -21.0310  -11.2740  -10.9090   C 0  0  0  0  0  0  0  0  0  0  0  0
  -19.3780   -5.9030  -10.1920   C 0  0  0  0  0  0  0  0  0  0  0  0
  -23.1010  -12.3750   -9.9390   C 0  0  0  0  0  0  0  0  0  0  0  0
  -19.7450  -16.7570   -8.6330   C 0  0  0  0  0  0  0  0  0  0  0  0
  -21.2950  -10.2390  -10.2860   O 0  0  0  0  0  0  0  0  0  0  0  0
  -16.7860  -12.2660  -11.8150   C 0  0  0  0  0  0  0  0  0  0  0  0
  -19.9660  -11.3030  -12.0080   C 0  0  0  0  0  0  0  0  0  0  0  0
  -21.2890   -6.9560  -12.1260   C 0  0  0  0  0  0  0  0  0  0  0  0
  -22.3600  -16.7470   -8.5190   C 0  0  0  0  0  0  0  0  0  0  0  0
  -15.2780  -14.0190   -8.5950   C 0  0  0  0  0  0  0  0  0  0  0  0
  -18.3900   -6.9360  -17.1620   C 0  0  0  0  0  0  0  0  0  0  0  0
  -23.9060  -18.2200  -10.0810   C 0  0  0  0  0  0  0  0  0  0  0  0
  -20.0700  -14.5400  -10.0060   C 0  0  0  0  0  0  0  0  0  0  0  0
  -17.3590  -10.9160  -12.3040   C 0  0  0  0  0  0  0  0  0  0  0  0
  -22.8510  -18.1270   -8.9630   C 0  0  0  0  0  0  0  0  0  0  0  0
  -24.1620  -16.3840  -11.7810   C 0  0  0  0  0  0  0  0  0  0  0  0
  -19.5130   -6.1710  -13.7440   C 0  0  0  0  0  0  0  0  0  0  0  0
  -19.2590  -14.5530   -7.7010   O 0  0  0  0  0  0  0  0  0  0  0  0
  -24.0810  -19.6700  -10.5220   C 0  0  0  0  0  0  0  0  0  0  0  0
  -20.4240   -5.9850  -14.8220   C 0  0  0  0  0  0  0  0  0  0  0  0
  -14.2530  -12.8690   -8.1760   C 0  0  0  0  0  0  0  0  0  0  0  0
  -20.9650  -16.9940   -6.5470   O 0  0  0  0  0  0  0  0  0  0  0  0
  -20.7010   -7.1020  -15.8600   C 0  0  0  0  0  0  0  0  0  0  0  0
  -18.2960   -5.9960  -13.9760   O 0  0  0  0  0  0  0  0  0  0  0  0
  -15.2510  -11.3240   -9.9520   C 0  0  0  0  0  0  0  0  0  0  0  0
  -23.4140  -16.0410   -7.6440   C 0  0  0  0  0  0  0  0  0  0  0  0
  -21.0150   -4.9000  -14.9350   O 0  0  0  0  0  0  0  0  0  0  0  0
  -21.5360   -8.0430  -15.1860   O 0  0  0  0  0  0  0  0  0  0  0  0
  -24.2010  -14.2420  -12.9660   C 0  0  0  0  0  0  0  0  0  0  0  0
  -21.7390  -12.6100  -10.6320   C 0  0  0  0  0  0  0  0  0  0  0  0
  -18.6980  -10.5750  -11.5850   C 0  0  0  0  0  0  0  0  0  0  0  0
  -18.5100   -8.1340  -11.0630   C 0  0  0  0  0  0  0  0  0  0  0  0
  -23.4530  -11.2890  -15.3790   C 0  0  0  0  0  0  0  0  0  0  0  0
  -24.1420  -12.0890  -14.2690   C 0  0  0  0  0  0  0  0  0  0  0  0
  -23.6650  -13.3150  -13.9870   C 0  0  0  0  0  0  0  0  0  0  0  0
  -25.3500  -11.3890  -13.5800   C 0  0  0  0  0  0  0  0  0  0  0  0
  -18.8570   -6.6800  -11.4130   C 0  0  0  0  0  0  0  0  0  0  0  0
  -18.9690   -9.2290  -11.8560   O 0  0  0  0  0  0  0  0  0  0  0  0
  -19.8930   -6.5310  -12.4860   N 0  0  0  0  0  0  0  0  0  0  0  0
  -14.6460  -15.3010   -8.5040   O 0  0  0  0  0  0  0  0  0  0  0  0
  -21.4050   -6.5340  -16.9790   O 0  0  0  0  0  0  0  0  0  0  0  0
  -13.5370  -15.6050   -9.3120   C 0  0  0  0  0  0  0  0  0  0  0  0
  -23.6300  -15.4350  -12.7860   C 0  0  0  0  0  0  0  0  0  0  0  0
  -19.3880   -7.8540  -16.3750   C 0  0  0  0  0  0  0  0  0  0  0  0
  -18.3940  -18.6900   -8.3680   C 0  0  0  0  0  0  0  0  0  0  0  0
  -17.8190   -8.3810  -10.0690   O 0  0  0  0  0  0  0  0  0  0  0  0
 62 35  1  0  0  0  0
  7 31  1  0  0  0  0
 33 25  1  0  0  0  0
 32 13  2  0  0  0  0
 31 38  1  0  0  0  0
 12 10  1  0  0  0  0
 53 55  1  0  0  0  0
 20 24  2  0  0  0  0
 27 58  1  0  0  0  0
 49 22  1  0  0  0  0
 18 23  1  0  0  0  0
  9 64  1  0  0  0  0
 63 16  1  0  0  0  0
  6 15  1  0  0  0  0
 17 32  1  0  0  0  0
 25 12  1  0  0  0  0
 50 33  1  0  0  0  0
 53 54  2  0  0  0  0
 39 46  2  0  0  0  0
 47 15  1  0  0  0  0
 58 36  1  0  0  0  0
 63 30  1  0  0  0  0
 40  2  1  0  0  0  0
 56 58  1  0  0  0  0
 23  9  1  0  0  0  0
 36 39  1  0  0  0  0
 42 63  1  0  0  0  0
 40  8  1  0  0  0  0
 15 11  1  0  0  0  0
 12 44  1  0  0  0  0
 20 26  1  0  0  0  0
 14  5  1  0  0  0  0
 11 52  1  0  0  0  0
 48 62  2  0  0  0  0
 26 50  1  0  0  0  0
 13 49  1  0  0  0  0
 36 43  2  0  0  0  0
 28 18  1  0  0  0  0
 59 61  1  0  0  0  0
 52 14  1  0  0  0  0
 39 42  1  0  0  0  0
  8 44  1  0  0  0  0
 34 28  1  0  0  0  0
 31 34  1  0  0  0  0
 56 21  1  0  0  0  0
 32 19  1  0  0  0  0
 52 53  1  0  0  0  0
 23 17  1  0  0  0  0
 29 40  1  0  0  0  0
 49 20  1  0  0  0  0
 33  1  1  0  0  0  0
 42 60  1  0  0  0  0
 54 48  1  0  0  0  0
 18 41  2  0  0  0  0
 51 56  1  0  0  0  0
  3  4  1  0  0  0  0
 29 59  1  0  0  0  0
 16  6  1  0  0  0  0
 28 45  1  0  0  0  0
 21  3  1  0  0  0  0
 42 47  1  0  0  0  0
 17 37  1  0  0  0  0
 51 57  1  0  0  0  0
  4 27  1  0  0  0  0
 10 29  1  0  0  0  0
 51 65  2  0  0  0  0
 35  7  2  0  0  0  0
 57 50  1  0  0  0  0
A    1
C49
A    2
O13
A    3
C4
A    4
C5
A    5
C50
A    6
C13
A    7
C22
A    8
C41
A    9
O9
A   10
C38
A   11
C15
A   12
C37
A   13
C30
A   14
O7
A   15
C14
A   16
C12
A   17
C28
A   18
C26
A   19
C47
A   20
C32
A   21
C3
A   22
C48
A   23
C27
A   24
O11
A   25
C36
A   26
C33
A   27
C6
A   28
C25
A   29
C39
A   30
C43
A   31
C23
A   32
C29
A   33
C35
A   34
C24
A   35
C21
A   36
C8
A   37
O10
A   38
C45
A   39
C9
A   40
C40
A   41
O8
A   42
C10
A   43
O3
A   44
C42
A   45
C46
A   46
O4
A   47
O5
A   48
C19
A   49
C31
A   50
C34
A   51
C1
A   52
C16
A   53
C17
A   54
C18
A   55
C44
A   56
C2
A   57
O1
A   58
N7
A   59
O12
A   60
O6
A   61
C52
A   62
C20
A   63
C11
A   64
C51
A   65
O2
M  END
>  <InstanceId>
1C9H_RAP

>  <ChemCompId>
RAP

>  <PdbId>
1C9H

>  <ChainId>
A

>  <ResidueNumber>
108

>  <InsertionCode>
null

>  <Model>
1

>  <AltIds>


>  <MissingHeavyAtoms>
0

>  <ObservedFormula>
C51 N O13

>  <AsymId>
B

>  <SeqNum>
108

>  <Name>
RAPAMYCIN IMMUNOSUPPRESSANT DRUG

>  <SystematicName>
null

>  <Synonyms>


>  <Type>
NON-POLYMER

>  <Formula>
C51 H79 N O13

>  <MolecularWeight>
914.172

>  <ModifiedDate>
2011-06-04

>  <Parent>


>  <OneLetterCode>


>  <SubcomponentList>


>  <AmbiguousFlag>
N

>  <InChI>
InChI=1S/C51H79NO13/c1-30-16-12-11-13-17-31(2)42(61-8)28-38-21-19-36(7)51(60,65-38)48(57)49(58)52-23-15-14-18-39(52)50(59)64-43(33(4)26-37-20-22-40(53)44(27-37)62-9)29-41(54)32(3)25-35(6)46(56)47(63-10)45(55)34(5)24-30/h11-13,16-17,25,30,32-34,36-40,42-44,46-47,53,56,60H,14-15,18-24,26-29H2,1-10H3/b13-11+,16-12+,31-17+,35-25+/t30-,32-,33-,34-,36-,37+,38+,39+,40-,42+,43+,44-,46-,47+,51-/m1/s1

>  <InChIKey>
QFJCIRLUMZQUOT-HPLJOQBZSA-N

>  <SMILES>
C[C@@H]1CC[C@H]2C[C@@H](C(=CC=C\C=C\[C@H](C[C@H](C(=O)[C@@H]([C@@H](/C(=C/[C@H](C(=O)C[C@H](OC(=O)[C@@H]3CCCCN3C(=O)C(=O)[C@@]1(O2)O)[C@H](C)C[C@@H]4CC[C@H]([C@@H](C4)OC)O)C)/C)O)OC)C)C)C)OC

$$$$
