1FAP_RAP_A_108
  RCSB PDB05141717003D
Coordinates from PDB:1FAP:A:108 without hydrogens
 65 68  0  0  0  0            999 V2000
  -10.5270   25.6960   29.6710   C 0  0  0  0  0  0  0  0  0  0  0  0
   -8.6630   28.0830   33.8060   C 0  0  0  0  0  0  0  0  0  0  0  0
  -13.0200   25.7940   36.5530   C 0  0  0  0  0  0  0  0  0  0  0  0
   -8.6530   27.0660   43.4840   O 0  0  0  0  0  0  0  0  0  0  0  0
   -6.8160   26.0140   40.3650   C 0  0  0  0  0  0  0  0  0  0  0  0
   -7.7150   26.7390   39.5040   O 0  0  0  0  0  0  0  0  0  0  0  0
   -9.2870   26.2230   42.8520   C 0  0  0  0  0  0  0  0  0  0  0  0
  -11.0260   25.6070   44.0550   O 0  0  0  0  0  0  0  0  0  0  0  0
  -14.7640   26.2880   38.0700   O 0  0  0  0  0  0  0  0  0  0  0  0
  -12.7440   27.2250   40.1970   C 0  0  0  0  0  0  0  0  0  0  0  0
   -5.5140   27.8840   30.7890   O 0  0  0  0  0  0  0  0  0  0  0  0
  -10.6450   26.3090   43.1200   C 0  0  0  0  0  0  0  0  0  0  0  0
   -7.6570   26.9730   33.7030   C 0  0  0  0  0  0  0  0  0  0  0  0
  -12.8150   27.1950   43.2060   O 0  0  0  0  0  0  0  0  0  0  0  0
   -1.1670   28.9200   35.5070   O 0  0  0  0  0  0  0  0  0  0  0  0
   -4.0020   31.0140   33.1400   C 0  0  0  0  0  0  0  0  0  0  0  0
   -2.3540   29.4910   36.0720   C 0  0  0  0  0  0  0  0  0  0  0  0
   -8.6850   25.3890   41.9850   N 0  0  0  0  0  0  0  0  0  0  0  0
   -8.6390   26.9610   37.2620   C 0  0  0  0  0  0  0  0  0  0  0  0
  -10.8560   29.2870   43.5270   C 0  0  0  0  0  0  0  0  0  0  0  0
  -12.1020   29.4530   41.3620   C 0  0  0  0  0  0  0  0  0  0  0  0
   -8.0660   23.8360   30.8250   C 0  0  0  0  0  0  0  0  0  0  0  0
  -12.8820   24.3040   36.8170   C 0  0  0  0  0  0  0  0  0  0  0  0
   -9.0270   23.0850   41.4300   C 0  0  0  0  0  0  0  0  0  0  0  0
  -12.6610   28.7550   40.1170   C 0  0  0  0  0  0  0  0  0  0  0  0
   -6.4260   27.3350   32.8580   C 0  0  0  0  0  0  0  0  0  0  0  0
   -9.1090   23.8700   34.8640   C 0  0  0  0  0  0  0  0  0  0  0  0
   -5.9130   25.4750   30.1850   O 0  0  0  0  0  0  0  0  0  0  0  0
   -8.9140   25.3530   35.1710   C 0  0  0  0  0  0  0  0  0  0  0  0
   -7.8140   25.8040   34.2810   C 0  0  0  0  0  0  0  0  0  0  0  0
   -3.4880   29.5080   35.0150   C 0  0  0  0  0  0  0  0  0  0  0  0
   -7.2340   25.4720   41.7420   C 0  0  0  0  0  0  0  0  0  0  0  0
   -5.7110   28.9190   29.9030   C 0  0  0  0  0  0  0  0  0  0  0  0
   -8.2350   24.5910   37.3340   O 0  0  0  0  0  0  0  0  0  0  0  0
  -11.1660   26.3030   28.4590   C 0  0  0  0  0  0  0  0  0  0  0  0
  -15.8190   26.9460   37.4570   C 0  0  0  0  0  0  0  0  0  0  0  0
  -11.1020   28.6230   42.1770   C 0  0  0  0  0  0  0  0  0  0  0  0
   -6.6840   27.4140   31.3560   C 0  0  0  0  0  0  0  0  0  0  0  0
   -6.7480   24.0380   41.9630   C 0  0  0  0  0  0  0  0  0  0  0  0
   -8.2170   25.3540   30.7830   C 0  0  0  0  0  0  0  0  0  0  0  0
   -5.6590   25.8630   39.9530   O 0  0  0  0  0  0  0  0  0  0  0  0
   -5.3940   26.3690   33.0970   O 0  0  0  0  0  0  0  0  0  0  0  0
   -6.6180   29.5420   37.3930   C 0  0  0  0  0  0  0  0  0  0  0  0
  -10.9670   26.4720   30.8900   C 0  0  0  0  0  0  0  0  0  0  0  0
   -8.5600   25.5570   36.6440   C 0  0  0  0  0  0  0  0  0  0  0  0
   -5.2420   29.0570   36.9260   C 0  0  0  0  0  0  0  0  0  0  0  0
   -2.7660   28.6820   37.3090   C 0  0  0  0  0  0  0  0  0  0  0  0
   -7.5310   22.9680   41.2040   C 0  0  0  0  0  0  0  0  0  0  0  0
   -7.3530   28.8080   38.5120   C 0  0  0  0  0  0  0  0  0  0  0  0
  -11.7490   26.6750   41.0290   O 0  0  0  0  0  0  0  0  0  0  0  0
   -4.0780   29.1300   37.9140   C 0  0  0  0  0  0  0  0  0  0  0  0
  -12.1830   25.6940   34.1650   C 0  0  0  0  0  0  0  0  0  0  0  0
   -8.7360   29.4250   38.6570   C 0  0  0  0  0  0  0  0  0  0  0  0
  -11.7190   25.8290   31.7600   C 0  0  0  0  0  0  0  0  0  0  0  0
   -9.0090   25.7600   29.5460   C 0  0  0  0  0  0  0  0  0  0  0  0
   -3.1170   30.5270   34.1260   O 0  0  0  0  0  0  0  0  0  0  0  0
  -11.6470   27.1890   42.3610   C 0  0  0  0  0  0  0  0  0  0  0  0
  -12.2640   26.3510   33.0030   C 0  0  0  0  0  0  0  0  0  0  0  0
  -12.4760   26.5580   38.8440   C 0  0  0  0  0  0  0  0  0  0  0  0
   -4.8390   29.8360   35.6670   C 0  0  0  0  0  0  0  0  0  0  0  0
  -13.4910   26.6880   37.7000   C 0  0  0  0  0  0  0  0  0  0  0  0
   -9.4920   24.4850   41.1390   C 0  0  0  0  0  0  0  0  0  0  0  0
   -7.4550   27.2730   38.2050   C 0  0  0  0  0  0  0  0  0  0  0  0
   -6.8530   26.0230   30.7510   C 0  0  0  0  0  0  0  0  0  0  0  0
  -12.7020   26.3440   35.4000   C 0  0  0  0  0  0  0  0  0  0  0  0
 31 17  1  0  0  0  0
 45 19  1  0  0  0  0
 46 60  1  0  0  0  0
 65 52  1  0  0  0  0
 12  8  2  0  0  0  0
 49 53  1  0  0  0  0
 59 61  1  0  0  0  0
 62 18  1  0  0  0  0
 44  1  1  0  0  0  0
 61  9  1  0  0  0  0
 55 40  1  0  0  0  0
 32 18  1  0  0  0  0
 61  3  1  0  0  0  0
 54 44  2  0  0  0  0
 24 62  1  0  0  0  0
 30 29  1  0  0  0  0
 48 24  1  0  0  0  0
 45 34  2  0  0  0  0
 10 59  1  0  0  0  0
 37 20  1  0  0  0  0
 52 58  2  0  0  0  0
 12 57  1  0  0  0  0
 64 28  2  0  0  0  0
 56 16  1  0  0  0  0
 17 47  1  0  0  0  0
 57 50  1  0  0  0  0
 38 11  1  0  0  0  0
 57 37  1  0  0  0  0
 29 45  1  0  0  0  0
  3 23  1  0  0  0  0
  1 55  1  0  0  0  0
 46 51  1  0  0  0  0
 18  7  1  0  0  0  0
  3 65  2  0  0  0  0
  5 32  1  0  0  0  0
 63 49  1  0  0  0  0
  1 35  1  0  0  0  0
  5 41  2  0  0  0  0
 26 42  1  0  0  0  0
 60 31  1  0  0  0  0
 39 48  1  0  0  0  0
  9 36  1  0  0  0  0
 47 51  1  0  0  0  0
 37 21  1  0  0  0  0
 19 63  1  0  0  0  0
 13 30  2  0  0  0  0
 50 10  1  0  0  0  0
 32 39  1  0  0  0  0
 57 14  1  0  0  0  0
 31 56  1  0  0  0  0
 25 10  1  0  0  0  0
 26 13  1  0  0  0  0
 40 22  1  0  0  0  0
 11 33  1  0  0  0  0
 21 25  1  0  0  0  0
 17 15  1  0  0  0  0
 49 43  1  0  0  0  0
 40 64  1  0  0  0  0
 29 27  1  0  0  0  0
  6 63  1  0  0  0  0
  7  4  2  0  0  0  0
 64 38  1  0  0  0  0
  7 12  1  0  0  0  0
 13  2  1  0  0  0  0
 58 54  1  0  0  0  0
  5  6  1  0  0  0  0
 38 26  1  0  0  0  0
 43 46  1  0  0  0  0
A    1
C23
A    2
C47
A    3
C17
A    4
O3
A    5
C1
A    6
O1
A    7
C8
A    8
O4
A    9
O7
A   10
C14
A   11
O9
A   12
C9
A   13
C29
A   14
O6
A   15
O13
A   16
C52
A   17
C40
A   18
N7
A   19
C33
A   20
C43
A   21
C12
A   22
C46
A   23
C44
A   24
C5
A   25
C13
A   26
C28
A   27
C48
A   28
O8
A   29
C31
A   30
C30
A   31
C39
A   32
C2
A   33
C51
A   34
O11
A   35
C45
A   36
C50
A   37
C11
A   38
C27
A   39
C3
A   40
C25
A   41
O2
A   42
O10
A   43
C36
A   44
C22
A   45
C32
A   46
C37
A   47
C41
A   48
C4
A   49
C35
A   50
O5
A   51
C42
A   52
C19
A   53
C49
A   54
C21
A   55
C24
A   56
O12
A   57
C10
A   58
C20
A   59
C15
A   60
C38
A   61
C16
A   62
C6
A   63
C34
A   64
C26
A   65
C18
M  END
>  <InstanceId>
1FAP_RAP_A_108

>  <ChemCompId>
RAP

>  <PdbId>
1FAP

>  <ChainId>
A

>  <ResidueNumber>
108

>  <InsertionCode>


>  <Model>
1

>  <AltIds>


>  <MissingHeavyAtoms>
0

>  <ObservedFormula>
C51 N O13

>  <AsymId>
C

>  <SeqNum>
108

>  <Name>
RAPAMYCIN IMMUNOSUPPRESSANT DRUG

>  <SystematicName>
null

>  <Synonyms>


>  <Type>
NON-POLYMER

>  <Formula>
C51 H79 N O13

>  <MolecularWeight>
914.172

>  <ModifiedDate>
2011-06-04

>  <Parent>


>  <OneLetterCode>


>  <SubcomponentList>


>  <AmbiguousFlag>
N

>  <InChI>
null

>  <InChIKey>
null

>  <SMILES>
C[C@@H]1CC[C@H]2C[C@@H](C(=CC=C\C=C\[C@H](C[C@H](C(=O)[C@@H]([C@@H](/C(=C/[C@H](C(=O)C[C@H](OC(=O)[C@@H]3CCCCN3C(=O)C(=O)[C@@]1(O2)O)[C@H](C)C[C@@H]4CC[C@H]([C@@H](C4)OC)O)C)/C)O)OC)C)C)C)OC

$$$$
