1FKB_RAP_A_108
  RCSB PDB07141709183D
Coordinates from PDB:1FKB:A:108 Model:1 without hydrogens
 65 68  0  0  0  0            999 V2000
    5.4820   11.1300   15.8240   C 0  0  0  0  0  0  0  0  0  0  0  0
    9.8030   13.1890    9.3490   O 0  0  0  0  0  0  0  0  0  0  0  0
    2.3540    6.8320   11.3720   C 0  0  0  0  0  0  0  0  0  0  0  0
    1.3600    6.6530   12.5050   C 0  0  0  0  0  0  0  0  0  0  0  0
   -2.1230   12.2430   18.1890   C 0  0  0  0  0  0  0  0  0  0  0  0
    2.0100   10.4230   17.7950   C 0  0  0  0  0  0  0  0  0  0  0  0
   -0.2480   17.4880   12.1490   C 0  0  0  0  0  0  0  0  0  0  0  0
    8.8190   11.6450   10.9300   C 0  0  0  0  0  0  0  0  0  0  0  0
    5.2100   18.0500   10.7780   O 0  0  0  0  0  0  0  0  0  0  0  0
    7.8120   13.9830   12.4610   C 0  0  0  0  0  0  0  0  0  0  0  0
    0.1930   10.4130   16.0940   C 0  0  0  0  0  0  0  0  0  0  0  0
    7.2100   12.5860   12.6500   C 0  0  0  0  0  0  0  0  0  0  0  0
    2.8080   13.9890   11.5490   C 0  0  0  0  0  0  0  0  0  0  0  0
   -1.6270   11.2720   17.3240   O 0  0  0  0  0  0  0  0  0  0  0  0
    0.8420    9.6280   17.2210   C 0  0  0  0  0  0  0  0  0  0  0  0
    2.9420    9.5910   18.6640   C 0  0  0  0  0  0  0  0  0  0  0  0
    4.5130   15.8410   11.3290   C 0  0  0  0  0  0  0  0  0  0  0  0
    3.1570   17.3910    9.7710   C 0  0  0  0  0  0  0  0  0  0  0  0
    3.2220   15.4750   13.5190   C 0  0  0  0  0  0  0  0  0  0  0  0
    2.4330   11.7010   12.4950   C 0  0  0  0  0  0  0  0  0  0  0  0
    3.7200    6.3740   11.8620   C 0  0  0  0  0  0  0  0  0  0  0  0
    0.6250   12.8300   11.1750   C 0  0  0  0  0  0  0  0  0  0  0  0
    4.0480   17.2970   11.0050   C 0  0  0  0  0  0  0  0  0  0  0  0
    2.2640   10.7010   11.7910   O 0  0  0  0  0  0  0  0  0  0  0  0
    6.5510   12.4800   14.0270   C 0  0  0  0  0  0  0  0  0  0  0  0
    3.3580   11.6930   13.7070   C 0  0  0  0  0  0  0  0  0  0  0  0
    1.7830    7.4300   13.7130   C 0  0  0  0  0  0  0  0  0  0  0  0
    1.6740   17.1120    9.9750   C 0  0  0  0  0  0  0  0  0  0  0  0
    8.3860   14.2020   11.0590   C 0  0  0  0  0  0  0  0  0  0  0  0
    4.2580    7.4120   18.8400   C 0  0  0  0  0  0  0  0  0  0  0  0
   -0.4500   18.2890   10.8810   C 0  0  0  0  0  0  0  0  0  0  0  0
    3.4620   15.0140   12.0940   C 0  0  0  0  0  0  0  0  0  0  0  0
    5.8460   11.1690   14.3670   C 0  0  0  0  0  0  0  0  0  0  0  0
    0.9110   18.4010   10.2160   C 0  0  0  0  0  0  0  0  0  0  0  0
   -0.9000   16.3770   12.4350   C 0  0  0  0  0  0  0  0  0  0  0  0
    3.3850    6.5490   15.3820   C 0  0  0  0  0  0  0  0  0  0  0  0
    4.8240   15.2000   10.0840   O 0  0  0  0  0  0  0  0  0  0  0  0
   -1.0140   19.6680   11.1900   C 0  0  0  0  0  0  0  0  0  0  0  0
    2.3970    6.4090   16.3810   C 0  0  0  0  0  0  0  0  0  0  0  0
    9.3990   13.0570   10.7110   C 0  0  0  0  0  0  0  0  0  0  0  0
    3.6110   17.6690    8.6630   O 0  0  0  0  0  0  0  0  0  0  0  0
    2.0560    7.5410   17.3680   C 0  0  0  0  0  0  0  0  0  0  0  0
    4.5520    6.2370   15.6540   O 0  0  0  0  0  0  0  0  0  0  0  0
    8.2430   11.5050   12.3320   C 0  0  0  0  0  0  0  0  0  0  0  0
    1.0990   16.3270    8.7930   C 0  0  0  0  0  0  0  0  0  0  0  0
    1.7830    5.3390   16.4740   O 0  0  0  0  0  0  0  0  0  0  0  0
    1.2800    8.4570   16.6310   O 0  0  0  0  0  0  0  0  0  0  0  0
   -1.0960   14.3670   13.8070   C 0  0  0  0  0  0  0  0  0  0  0  0
    1.7730   13.0420   12.1750   C 0  0  0  0  0  0  0  0  0  0  0  0
    4.6300   10.9090   13.4550   C 0  0  0  0  0  0  0  0  0  0  0  0
    4.6330    8.5000   12.8470   C 0  0  0  0  0  0  0  0  0  0  0  0
   -0.5820   11.6640   16.4900   C 0  0  0  0  0  0  0  0  0  0  0  0
   -1.1450   12.3710   15.2760   C 0  0  0  0  0  0  0  0  0  0  0  0
   -0.6720   13.5710   14.9670   C 0  0  0  0  0  0  0  0  0  0  0  0
   -2.2570   11.6210   14.5220   C 0  0  0  0  0  0  0  0  0  0  0  0
    4.1770    7.0700   13.1350   C 0  0  0  0  0  0  0  0  0  0  0  0
    4.2640    9.5930   13.6790   O 0  0  0  0  0  0  0  0  0  0  0  0
    3.1050    6.9340   14.1270   N 0  0  0  0  0  0  0  0  0  0  0  0
    9.0410   15.4440   11.0860   O 0  0  0  0  0  0  0  0  0  0  0  0
    1.3100    6.9920   18.4580   O 0  0  0  0  0  0  0  0  0  0  0  0
    8.3520   16.5240   10.5560   C 0  0  0  0  0  0  0  0  0  0  0  0
   -0.5860   15.5780   13.6340   C 0  0  0  0  0  0  0  0  0  0  0  0
    3.3320    8.2820   17.9400   C 0  0  0  0  0  0  0  0  0  0  0  0
    5.1340   19.3870   11.1300   C 0  0  0  0  0  0  0  0  0  0  0  0
    5.3670    8.7260   11.8880   O 0  0  0  0  0  0  0  0  0  0  0  0
 62 35  1  0  0  0  0
  7 31  1  0  0  0  0
 33 25  1  0  0  0  0
 32 13  2  0  0  0  0
 31 38  1  0  0  0  0
 12 10  1  0  0  0  0
 53 55  1  0  0  0  0
 20 24  2  0  0  0  0
 27 58  1  0  0  0  0
 49 22  1  0  0  0  0
 18 23  1  0  0  0  0
  9 64  1  0  0  0  0
 63 16  1  0  0  0  0
  6 15  1  0  0  0  0
 17 32  1  0  0  0  0
 25 12  1  0  0  0  0
 50 33  1  0  0  0  0
 53 54  2  0  0  0  0
 39 46  2  0  0  0  0
 47 15  1  0  0  0  0
 58 36  1  0  0  0  0
 63 30  1  0  0  0  0
 40  2  1  0  0  0  0
 56 58  1  0  0  0  0
 23  9  1  0  0  0  0
 36 39  1  0  0  0  0
 42 63  1  0  0  0  0
 40  8  1  0  0  0  0
 15 11  1  0  0  0  0
 12 44  1  0  0  0  0
 20 26  1  0  0  0  0
 14  5  1  0  0  0  0
 11 52  1  0  0  0  0
 48 62  2  0  0  0  0
 26 50  1  0  0  0  0
 13 49  1  0  0  0  0
 36 43  2  0  0  0  0
 28 18  1  0  0  0  0
 59 61  1  0  0  0  0
 52 14  1  0  0  0  0
 39 42  1  0  0  0  0
  8 44  1  0  0  0  0
 34 28  1  0  0  0  0
 31 34  1  0  0  0  0
 56 21  1  0  0  0  0
 32 19  1  0  0  0  0
 52 53  1  0  0  0  0
 23 17  1  0  0  0  0
 29 40  1  0  0  0  0
 49 20  1  0  0  0  0
 33  1  1  0  0  0  0
 42 60  1  0  0  0  0
 54 48  1  0  0  0  0
 18 41  2  0  0  0  0
 51 56  1  0  0  0  0
  3  4  1  0  0  0  0
 29 59  1  0  0  0  0
 16  6  1  0  0  0  0
 28 45  1  0  0  0  0
 21  3  1  0  0  0  0
 42 47  1  0  0  0  0
 17 37  1  0  0  0  0
 51 57  1  0  0  0  0
  4 27  1  0  0  0  0
 10 29  1  0  0  0  0
 51 65  2  0  0  0  0
 35  7  2  0  0  0  0
 57 50  1  0  0  0  0
A    1
C49
A    2
O13
A    3
C4
A    4
C5
A    5
C50
A    6
C13
A    7
C22
A    8
C41
A    9
O9
A   10
C38
A   11
C15
A   12
C37
A   13
C30
A   14
O7
A   15
C14
A   16
C12
A   17
C28
A   18
C26
A   19
C47
A   20
C32
A   21
C3
A   22
C48
A   23
C27
A   24
O11
A   25
C36
A   26
C33
A   27
C6
A   28
C25
A   29
C39
A   30
C43
A   31
C23
A   32
C29
A   33
C35
A   34
C24
A   35
C21
A   36
C8
A   37
O10
A   38
C45
A   39
C9
A   40
C40
A   41
O8
A   42
C10
A   43
O3
A   44
C42
A   45
C46
A   46
O4
A   47
O5
A   48
C19
A   49
C31
A   50
C34
A   51
C1
A   52
C16
A   53
C17
A   54
C18
A   55
C44
A   56
C2
A   57
O1
A   58
N7
A   59
O12
A   60
O6
A   61
C52
A   62
C20
A   63
C11
A   64
C51
A   65
O2
M  END
>  <InstanceId>
1FKB_RAP

>  <ChemCompId>
RAP

>  <PdbId>
1FKB

>  <ChainId>
A

>  <ResidueNumber>
108

>  <InsertionCode>
null

>  <Model>
1

>  <AltIds>


>  <MissingHeavyAtoms>
0

>  <ObservedFormula>
C51 N O13

>  <AsymId>
B

>  <SeqNum>
108

>  <Name>
RAPAMYCIN IMMUNOSUPPRESSANT DRUG

>  <SystematicName>
null

>  <Synonyms>


>  <Type>
NON-POLYMER

>  <Formula>
C51 H79 N O13

>  <MolecularWeight>
914.172

>  <ModifiedDate>
2011-06-04

>  <Parent>


>  <OneLetterCode>


>  <SubcomponentList>


>  <AmbiguousFlag>
N

>  <InChI>
InChI=1S/C51H79NO13/c1-30-16-12-11-13-17-31(2)42(61-8)28-38-21-19-36(7)51(60,65-38)48(57)49(58)52-23-15-14-18-39(52)50(59)64-43(33(4)26-37-20-22-40(53)44(27-37)62-9)29-41(54)32(3)25-35(6)46(56)47(63-10)45(55)34(5)24-30/h11-13,16-17,25,30,32-34,36-40,42-44,46-47,53,56,60H,14-15,18-24,26-29H2,1-10H3/b13-11+,16-12+,31-17+,35-25+/t30-,32-,33-,34-,36-,37+,38+,39+,40-,42+,43+,44-,46-,47+,51-/m1/s1

>  <InChIKey>
QFJCIRLUMZQUOT-HPLJOQBZSA-N

>  <SMILES>
C[C@@H]1CC[C@H]2C[C@@H](C(=CC=C\C=C\[C@H](C[C@H](C(=O)[C@@H]([C@@H](/C(=C/[C@H](C(=O)C[C@H](OC(=O)[C@@H]3CCCCN3C(=O)C(=O)[C@@]1(O2)O)[C@H](C)C[C@@H]4CC[C@H]([C@@H](C4)OC)O)C)/C)O)OC)C)C)C)OC

$$$$
