1FKL_RAP_A_108
  RCSB PDB05141717003D
Coordinates from PDB:1FKL:A:108 without hydrogens
 65 68  0  0  0  0            999 V2000
  -23.3880  -18.4910  -10.9700   C 0  0  0  0  0  0  0  0  0  0  0  0
  -19.7100  -15.6260  -13.6440   C 0  0  0  0  0  0  0  0  0  0  0  0
  -24.2030  -12.3740  -15.3430   C 0  0  0  0  0  0  0  0  0  0  0  0
  -18.3700   -6.2820  -15.8110   O 0  0  0  0  0  0  0  0  0  0  0  0
  -18.1700   -8.4900  -12.9290   C 0  0  0  0  0  0  0  0  0  0  0  0
  -18.6280   -9.5340  -13.7620   O 0  0  0  0  0  0  0  0  0  0  0  0
  -19.5340   -6.6230  -15.5260   C 0  0  0  0  0  0  0  0  0  0  0  0
  -21.1600   -5.3710  -16.6420   O 0  0  0  0  0  0  0  0  0  0  0  0
  -24.7050  -11.2990  -17.5140   O 0  0  0  0  0  0  0  0  0  0  0  0
  -22.0980   -9.7380  -17.3210   C 0  0  0  0  0  0  0  0  0  0  0  0
  -17.6710  -18.1810  -10.8780   O 0  0  0  0  0  0  0  0  0  0  0  0
  -20.5170   -6.4230  -16.5440   C 0  0  0  0  0  0  0  0  0  0  0  0
  -19.4470  -15.1250  -12.2010   C 0  0  0  0  0  0  0  0  0  0  0  0
  -21.7130   -7.0990  -18.5610   O 0  0  0  0  0  0  0  0  0  0  0  0
  -13.0360  -13.3810   -9.3780   O 0  0  0  0  0  0  0  0  0  0  0  0
  -14.4100  -16.5200  -10.0130   C 0  0  0  0  0  0  0  0  0  0  0  0
  -13.4320  -13.2090  -10.7490   C 0  0  0  0  0  0  0  0  0  0  0  0
  -19.8340   -7.0740  -14.2680   N 0  0  0  0  0  0  0  0  0  0  0  0
  -19.5020  -11.7380  -13.7330   C 0  0  0  0  0  0  0  0  0  0  0  0
  -18.7620   -7.3700  -19.1030   C 0  0  0  0  0  0  0  0  0  0  0  0
  -19.9900   -9.6360  -18.8240   C 0  0  0  0  0  0  0  0  0  0  0  0
  -21.8120  -16.2630   -8.8340   C 0  0  0  0  0  0  0  0  0  0  0  0
  -25.3390  -11.6740  -14.5760   C 0  0  0  0  0  0  0  0  0  0  0  0
  -21.6150   -6.7670  -12.5910   C 0  0  0  0  0  0  0  0  0  0  0  0
  -20.8330  -10.4800  -17.8240   C 0  0  0  0  0  0  0  0  0  0  0  0
  -18.3610  -15.8930  -11.4410   C 0  0  0  0  0  0  0  0  0  0  0  0
  -22.3220  -12.9470  -11.1640   C 0  0  0  0  0  0  0  0  0  0  0  0
  -19.3140  -17.8340   -8.8290   O 0  0  0  0  0  0  0  0  0  0  0  0
  -21.1560  -13.1040  -12.2080   C 0  0  0  0  0  0  0  0  0  0  0  0
  -20.1350  -14.1000  -11.5810   C 0  0  0  0  0  0  0  0  0  0  0  0
  -14.4570  -14.3250  -11.1670   C 0  0  0  0  0  0  0  0  0  0  0  0
  -18.7340   -7.0900  -13.2370   C 0  0  0  0  0  0  0  0  0  0  0  0
  -17.4200  -19.3340  -11.7080   C 0  0  0  0  0  0  0  0  0  0  0  0
  -20.6530  -10.7370  -11.8740   O 0  0  0  0  0  0  0  0  0  0  0  0
  -23.8910  -19.9370  -11.2760   C 0  0  0  0  0  0  0  0  0  0  0  0
  -25.2410  -12.3890  -18.3390   C 0  0  0  0  0  0  0  0  0  0  0  0
  -19.5720   -8.2900  -18.1540   C 0  0  0  0  0  0  0  0  0  0  0  0
  -18.8520  -17.3640  -11.1400   C 0  0  0  0  0  0  0  0  0  0  0  0
  -19.1880   -6.4310  -11.9080   C 0  0  0  0  0  0  0  0  0  0  0  0
  -21.2650  -17.1310  -10.0070   C 0  0  0  0  0  0  0  0  0  0  0  0
  -17.4180   -8.6870  -12.0230   O 0  0  0  0  0  0  0  0  0  0  0  0
  -18.0260  -15.2450  -10.2250   O 0  0  0  0  0  0  0  0  0  0  0  0
  -16.2460  -12.5490  -14.1960   C 0  0  0  0  0  0  0  0  0  0  0  0
  -23.2140  -17.7010  -12.2790   C 0  0  0  0  0  0  0  0  0  0  0  0
  -20.4290  -11.7510  -12.5110   C 0  0  0  0  0  0  0  0  0  0  0  0
  -15.6360  -12.7040  -12.7650   C 0  0  0  0  0  0  0  0  0  0  0  0
  -14.0180  -11.7660  -10.9160   C 0  0  0  0  0  0  0  0  0  0  0  0
  -20.5850   -6.9650  -11.4420   C 0  0  0  0  0  0  0  0  0  0  0  0
  -17.0460  -11.2430  -14.4990   C 0  0  0  0  0  0  0  0  0  0  0  0
  -21.6710   -8.4930  -16.7530   O 0  0  0  0  0  0  0  0  0  0  0  0
  -14.6960  -11.5130  -12.2840   C 0  0  0  0  0  0  0  0  0  0  0  0
  -24.1600  -14.5460  -13.9750   C 0  0  0  0  0  0  0  0  0  0  0  0
  -17.3930  -11.1280  -15.9840   C 0  0  0  0  0  0  0  0  0  0  0  0
  -23.7340  -16.4670  -12.4720   C 0  0  0  0  0  0  0  0  0  0  0  0
  -21.9730  -18.5180  -10.2930   C 0  0  0  0  0  0  0  0  0  0  0  0
  -13.8630  -15.6650  -11.0680   O 0  0  0  0  0  0  0  0  0  0  0  0
  -20.8610   -7.5910  -17.5280   C 0  0  0  0  0  0  0  0  0  0  0  0
  -23.5590  -15.7230  -13.7290   C 0  0  0  0  0  0  0  0  0  0  0  0
  -22.8780  -10.4260  -16.1630   C 0  0  0  0  0  0  0  0  0  0  0  0
  -14.9480  -14.1010  -12.6180   C 0  0  0  0  0  0  0  0  0  0  0  0
  -23.6370  -11.7010  -16.6130   C 0  0  0  0  0  0  0  0  0  0  0  0
  -21.1690   -7.5650  -13.8190   C 0  0  0  0  0  0  0  0  0  0  0  0
  -18.2360  -10.9140  -13.5070   C 0  0  0  0  0  0  0  0  0  0  0  0
  -19.7530  -17.4030   -9.8800   C 0  0  0  0  0  0  0  0  0  0  0  0
  -23.6310  -13.5440  -14.9330   C 0  0  0  0  0  0  0  0  0  0  0  0
 31 17  1  0  0  0  0
 45 19  1  0  0  0  0
 46 60  1  0  0  0  0
 65 52  1  0  0  0  0
 12  8  2  0  0  0  0
 49 53  1  0  0  0  0
 59 61  1  0  0  0  0
 62 18  1  0  0  0  0
 44  1  1  0  0  0  0
 61  9  1  0  0  0  0
 55 40  1  0  0  0  0
 32 18  1  0  0  0  0
 61  3  1  0  0  0  0
 54 44  2  0  0  0  0
 24 62  1  0  0  0  0
 30 29  1  0  0  0  0
 48 24  1  0  0  0  0
 45 34  2  0  0  0  0
 10 59  1  0  0  0  0
 37 20  1  0  0  0  0
 52 58  2  0  0  0  0
 12 57  1  0  0  0  0
 64 28  2  0  0  0  0
 56 16  1  0  0  0  0
 17 47  1  0  0  0  0
 57 50  1  0  0  0  0
 38 11  1  0  0  0  0
 57 37  1  0  0  0  0
 29 45  1  0  0  0  0
  3 23  1  0  0  0  0
  1 55  1  0  0  0  0
 46 51  1  0  0  0  0
 18  7  1  0  0  0  0
  3 65  2  0  0  0  0
  5 32  1  0  0  0  0
 63 49  1  0  0  0  0
  1 35  1  0  0  0  0
  5 41  2  0  0  0  0
 26 42  1  0  0  0  0
 60 31  1  0  0  0  0
 39 48  1  0  0  0  0
  9 36  1  0  0  0  0
 47 51  1  0  0  0  0
 37 21  1  0  0  0  0
 19 63  1  0  0  0  0
 13 30  2  0  0  0  0
 50 10  1  0  0  0  0
 32 39  1  0  0  0  0
 57 14  1  0  0  0  0
 31 56  1  0  0  0  0
 25 10  1  0  0  0  0
 26 13  1  0  0  0  0
 40 22  1  0  0  0  0
 11 33  1  0  0  0  0
 21 25  1  0  0  0  0
 17 15  1  0  0  0  0
 49 43  1  0  0  0  0
 40 64  1  0  0  0  0
 29 27  1  0  0  0  0
  6 63  1  0  0  0  0
  7  4  2  0  0  0  0
 64 38  1  0  0  0  0
  7 12  1  0  0  0  0
 13  2  1  0  0  0  0
 58 54  1  0  0  0  0
  5  6  1  0  0  0  0
 38 26  1  0  0  0  0
 43 46  1  0  0  0  0
A    1
C23
A    2
C47
A    3
C17
A    4
O3
A    5
C1
A    6
O1
A    7
C8
A    8
O4
A    9
O7
A   10
C14
A   11
O9
A   12
C9
A   13
C29
A   14
O6
A   15
O13
A   16
C52
A   17
C40
A   18
N7
A   19
C33
A   20
C43
A   21
C12
A   22
C46
A   23
C44
A   24
C5
A   25
C13
A   26
C28
A   27
C48
A   28
O8
A   29
C31
A   30
C30
A   31
C39
A   32
C2
A   33
C51
A   34
O11
A   35
C45
A   36
C50
A   37
C11
A   38
C27
A   39
C3
A   40
C25
A   41
O2
A   42
O10
A   43
C36
A   44
C22
A   45
C32
A   46
C37
A   47
C41
A   48
C4
A   49
C35
A   50
O5
A   51
C42
A   52
C19
A   53
C49
A   54
C21
A   55
C24
A   56
O12
A   57
C10
A   58
C20
A   59
C15
A   60
C38
A   61
C16
A   62
C6
A   63
C34
A   64
C26
A   65
C18
M  END
>  <InstanceId>
1FKL_RAP_A_108

>  <ChemCompId>
RAP

>  <PdbId>
1FKL

>  <ChainId>
A

>  <ResidueNumber>
108

>  <InsertionCode>


>  <Model>
1

>  <AltIds>


>  <MissingHeavyAtoms>
0

>  <ObservedFormula>
C51 N O13

>  <AsymId>
B

>  <SeqNum>
108

>  <Name>
RAPAMYCIN IMMUNOSUPPRESSANT DRUG

>  <SystematicName>
null

>  <Synonyms>


>  <Type>
NON-POLYMER

>  <Formula>
C51 H79 N O13

>  <MolecularWeight>
914.172

>  <ModifiedDate>
2011-06-04

>  <Parent>


>  <OneLetterCode>


>  <SubcomponentList>


>  <AmbiguousFlag>
N

>  <InChI>
null

>  <InChIKey>
null

>  <SMILES>
C[C@@H]1CC[C@H]2C[C@@H](C(=CC=C\C=C\[C@H](C[C@H](C(=O)[C@@H]([C@@H](/C(=C/[C@H](C(=O)C[C@H](OC(=O)[C@@H]3CCCCN3C(=O)C(=O)[C@@]1(O2)O)[C@H](C)C[C@@H]4CC[C@H]([C@@H](C4)OC)O)C)/C)O)OC)C)C)C)OC

$$$$
