1PBK_RAP_A_225
  RCSB PDB05141717003D
Coordinates from PDB:1PBK:A:225 without hydrogens
 65 68  0  0  0  0            999 V2000
   20.7160   16.5740   22.3740   C 0  0  0  0  0  0  0  0  0  0  0  0
   18.5380   19.5120   26.0500   C 0  0  0  0  0  0  0  0  0  0  0  0
   22.6600   23.4200   24.3650   C 0  0  0  0  0  0  0  0  0  0  0  0
   17.0480   28.5800   28.1730   O 0  0  0  0  0  0  0  0  0  0  0  0
   15.6590   25.8130   26.1970   C 0  0  0  0  0  0  0  0  0  0  0  0
   16.7240   24.8830   26.4370   O 0  0  0  0  0  0  0  0  0  0  0  0
   17.7790   28.3080   27.2080   C 0  0  0  0  0  0  0  0  0  0  0  0
   19.3830   29.8040   26.7010   O 0  0  0  0  0  0  0  0  0  0  0  0
   23.9340   25.2050   25.2720   O 0  0  0  0  0  0  0  0  0  0  0  0
   21.5810   26.0930   26.9710   C 0  0  0  0  0  0  0  0  0  0  0  0
   15.6700   16.3050   25.2300   O 0  0  0  0  0  0  0  0  0  0  0  0
   19.1080   28.7520   27.2870   C 0  0  0  0  0  0  0  0  0  0  0  0
   17.4210   19.6000   25.0150   C 0  0  0  0  0  0  0  0  0  0  0  0
   21.2210   28.7270   28.5550   O 0  0  0  0  0  0  0  0  0  0  0  0
   10.5710   19.9000   28.4180   O 0  0  0  0  0  0  0  0  0  0  0  0
   12.6250   17.5260   26.9490   C 0  0  0  0  0  0  0  0  0  0  0  0
   11.8320   20.1280   29.0430   C 0  0  0  0  0  0  0  0  0  0  0  0
   17.2610   27.7670   26.0830   N 0  0  0  0  0  0  0  0  0  0  0  0
   17.8620   22.9860   26.0150   C 0  0  0  0  0  0  0  0  0  0  0  0
   19.4920   27.7870   30.3880   C 0  0  0  0  0  0  0  0  0  0  0  0
   20.6390   25.8680   29.3280   C 0  0  0  0  0  0  0  0  0  0  0  0
   17.9600   17.8530   21.3370   C 0  0  0  0  0  0  0  0  0  0  0  0
   22.8490   23.9510   22.9370   C 0  0  0  0  0  0  0  0  0  0  0  0
   17.5260   27.9050   23.7140   C 0  0  0  0  0  0  0  0  0  0  0  0
   21.0510   25.1430   28.0440   C 0  0  0  0  0  0  0  0  0  0  0  0
   16.3280   18.5260   25.1920   C 0  0  0  0  0  0  0  0  0  0  0  0
   18.4990   21.8900   22.3260   C 0  0  0  0  0  0  0  0  0  0  0  0
   16.2070   16.0930   22.7320   O 0  0  0  0  0  0  0  0  0  0  0  0
   18.3520   21.6520   23.8170   C 0  0  0  0  0  0  0  0  0  0  0  0
   17.3780   20.5060   24.0270   C 0  0  0  0  0  0  0  0  0  0  0  0
   12.8300   19.5430   28.0340   C 0  0  0  0  0  0  0  0  0  0  0  0
   15.8700   27.3020   26.0400   C 0  0  0  0  0  0  0  0  0  0  0  0
   16.0680   15.3510   26.1250   C 0  0  0  0  0  0  0  0  0  0  0  0
   17.4220   23.9100   23.8720   O 0  0  0  0  0  0  0  0  0  0  0  0
   21.4920   15.2950   22.5320   C 0  0  0  0  0  0  0  0  0  0  0  0
   25.1480   24.7410   25.7220   C 0  0  0  0  0  0  0  0  0  0  0  0
   19.7080   27.0300   29.0780   C 0  0  0  0  0  0  0  0  0  0  0  0
   16.7550   17.0760   24.8580   C 0  0  0  0  0  0  0  0  0  0  0  0
   15.2480   27.7640   24.7380   C 0  0  0  0  0  0  0  0  0  0  0  0
   18.2660   17.3200   22.7380   C 0  0  0  0  0  0  0  0  0  0  0  0
   14.5120   25.3960   26.1200   O 0  0  0  0  0  0  0  0  0  0  0  0
   15.2060   18.8110   24.3600   O 0  0  0  0  0  0  0  0  0  0  0  0
   15.8670   21.8950   28.4260   C 0  0  0  0  0  0  0  0  0  0  0  0
   21.1810   17.6330   23.3730   C 0  0  0  0  0  0  0  0  0  0  0  0
   17.8390   22.9330   24.5010   C 0  0  0  0  0  0  0  0  0  0  0  0
   14.4120   21.5040   28.3120   C 0  0  0  0  0  0  0  0  0  0  0  0
   12.0550   21.6320   29.3210   C 0  0  0  0  0  0  0  0  0  0  0  0
   16.0780   27.4440   23.5060   C 0  0  0  0  0  0  0  0  0  0  0  0
   16.3650   23.2880   28.1120   C 0  0  0  0  0  0  0  0  0  0  0  0
   20.7010   27.1770   26.8340   O 0  0  0  0  0  0  0  0  0  0  0  0
   13.5350   22.0380   29.4580   C 0  0  0  0  0  0  0  0  0  0  0  0
   22.1400   21.0950   23.6790   C 0  0  0  0  0  0  0  0  0  0  0  0
   17.6380   23.4870   28.9040   C 0  0  0  0  0  0  0  0  0  0  0  0
   21.5240   18.8640   23.0580   C 0  0  0  0  0  0  0  0  0  0  0  0
   19.2870   16.2110   22.7150   C 0  0  0  0  0  0  0  0  0  0  0  0
   12.7320   18.1790   28.1680   O 0  0  0  0  0  0  0  0  0  0  0  0
   20.2250   27.9190   27.9440   C 0  0  0  0  0  0  0  0  0  0  0  0
   21.8680   19.8560   24.0780   C 0  0  0  0  0  0  0  0  0  0  0  0
   21.6540   25.3910   25.6260   C 0  0  0  0  0  0  0  0  0  0  0  0
   14.2740   19.9860   28.2690   C 0  0  0  0  0  0  0  0  0  0  0  0
   22.8310   24.4140   25.5050   C 0  0  0  0  0  0  0  0  0  0  0  0
   18.0920   27.2770   24.9830   C 0  0  0  0  0  0  0  0  0  0  0  0
   16.5790   23.5180   26.6020   C 0  0  0  0  0  0  0  0  0  0  0  0
   16.9950   16.7810   23.3800   C 0  0  0  0  0  0  0  0  0  0  0  0
   22.3750   22.1630   24.6600   C 0  0  0  0  0  0  0  0  0  0  0  0
 31 17  1  0  0  0  0
 45 19  1  0  0  0  0
 46 60  1  0  0  0  0
 65 52  1  0  0  0  0
 12  8  2  0  0  0  0
 49 53  1  0  0  0  0
 59 61  1  0  0  0  0
 62 18  1  0  0  0  0
 44  1  1  0  0  0  0
 61  9  1  0  0  0  0
 55 40  1  0  0  0  0
 32 18  1  0  0  0  0
 61  3  1  0  0  0  0
 54 44  2  0  0  0  0
 24 62  1  0  0  0  0
 30 29  1  0  0  0  0
 48 24  1  0  0  0  0
 45 34  2  0  0  0  0
 10 59  1  0  0  0  0
 37 20  1  0  0  0  0
 52 58  2  0  0  0  0
 12 57  1  0  0  0  0
 64 28  2  0  0  0  0
 56 16  1  0  0  0  0
 17 47  1  0  0  0  0
 57 50  1  0  0  0  0
 38 11  1  0  0  0  0
 57 37  1  0  0  0  0
 29 45  1  0  0  0  0
  3 23  1  0  0  0  0
  1 55  1  0  0  0  0
 46 51  1  0  0  0  0
 18  7  1  0  0  0  0
  3 65  2  0  0  0  0
  5 32  1  0  0  0  0
 63 49  1  0  0  0  0
  1 35  1  0  0  0  0
  5 41  2  0  0  0  0
 26 42  1  0  0  0  0
 60 31  1  0  0  0  0
 39 48  1  0  0  0  0
  9 36  1  0  0  0  0
 47 51  1  0  0  0  0
 37 21  1  0  0  0  0
 19 63  1  0  0  0  0
 13 30  2  0  0  0  0
 50 10  1  0  0  0  0
 32 39  1  0  0  0  0
 57 14  1  0  0  0  0
 31 56  1  0  0  0  0
 25 10  1  0  0  0  0
 26 13  1  0  0  0  0
 40 22  1  0  0  0  0
 11 33  1  0  0  0  0
 21 25  1  0  0  0  0
 17 15  1  0  0  0  0
 49 43  1  0  0  0  0
 40 64  1  0  0  0  0
 29 27  1  0  0  0  0
  6 63  1  0  0  0  0
  7  4  2  0  0  0  0
 64 38  1  0  0  0  0
  7 12  1  0  0  0  0
 13  2  1  0  0  0  0
 58 54  1  0  0  0  0
  5  6  1  0  0  0  0
 38 26  1  0  0  0  0
 43 46  1  0  0  0  0
A    1
C23
A    2
C47
A    3
C17
A    4
O3
A    5
C1
A    6
O1
A    7
C8
A    8
O4
A    9
O7
A   10
C14
A   11
O9
A   12
C9
A   13
C29
A   14
O6
A   15
O13
A   16
C52
A   17
C40
A   18
N7
A   19
C33
A   20
C43
A   21
C12
A   22
C46
A   23
C44
A   24
C5
A   25
C13
A   26
C28
A   27
C48
A   28
O8
A   29
C31
A   30
C30
A   31
C39
A   32
C2
A   33
C51
A   34
O11
A   35
C45
A   36
C50
A   37
C11
A   38
C27
A   39
C3
A   40
C25
A   41
O2
A   42
O10
A   43
C36
A   44
C22
A   45
C32
A   46
C37
A   47
C41
A   48
C4
A   49
C35
A   50
O5
A   51
C42
A   52
C19
A   53
C49
A   54
C21
A   55
C24
A   56
O12
A   57
C10
A   58
C20
A   59
C15
A   60
C38
A   61
C16
A   62
C6
A   63
C34
A   64
C26
A   65
C18
M  END
>  <InstanceId>
1PBK_RAP_A_225

>  <ChemCompId>
RAP

>  <PdbId>
1PBK

>  <ChainId>
A

>  <ResidueNumber>
225

>  <InsertionCode>


>  <Model>
1

>  <AltIds>


>  <MissingHeavyAtoms>
0

>  <ObservedFormula>
C51 N O13

>  <AsymId>
B

>  <SeqNum>
225

>  <Name>
RAPAMYCIN IMMUNOSUPPRESSANT DRUG

>  <SystematicName>
null

>  <Synonyms>


>  <Type>
NON-POLYMER

>  <Formula>
C51 H79 N O13

>  <MolecularWeight>
914.172

>  <ModifiedDate>
2011-06-04

>  <Parent>


>  <OneLetterCode>


>  <SubcomponentList>


>  <AmbiguousFlag>
N

>  <InChI>
null

>  <InChIKey>
null

>  <SMILES>
C[C@@H]1CC[C@H]2C[C@@H](C(=CC=C\C=C\[C@H](C[C@H](C(=O)[C@@H]([C@@H](/C(=C/[C@H](C(=O)C[C@H](OC(=O)[C@@H]3CCCCN3C(=O)C(=O)[C@@]1(O2)O)[C@H](C)C[C@@H]4CC[C@H]([C@@H](C4)OC)O)C)/C)O)OC)C)C)C)OC

$$$$
