1Z58_RAP_2_2881
  RCSB PDB07141709183D
Coordinates from PDB:1Z58:2:2881 Model:1 without hydrogens
 65 68  0  0  0  0            999 V2000
   44.5920  136.5590  117.6540   C 0  0  0  0  0  0  0  0  0  0  0  0
   40.4790  132.3140  112.0780   O 0  0  0  0  0  0  0  0  0  0  0  0
   48.3460  130.6510  118.0260   C 0  0  0  0  0  0  0  0  0  0  0  0
   48.9060  131.2570  119.3170   C 0  0  0  0  0  0  0  0  0  0  0  0
   45.5690  136.5890  125.6990   C 0  0  0  0  0  0  0  0  0  0  0  0
   46.5310  137.2760  121.4330   C 0  0  0  0  0  0  0  0  0  0  0  0
   38.3240  132.9630  123.1860   C 0  0  0  0  0  0  0  0  0  0  0  0
   42.4800  133.1990  113.1480   C 0  0  0  0  0  0  0  0  0  0  0  0
   36.9800  132.1510  117.6130   O 0  0  0  0  0  0  0  0  0  0  0  0
   40.6990  134.5840  115.1590   C 0  0  0  0  0  0  0  0  0  0  0  0
   46.1750  135.0040  122.4910   C 0  0  0  0  0  0  0  0  0  0  0  0
   42.2020  134.3210  115.4640   C 0  0  0  0  0  0  0  0  0  0  0  0
   41.4130  131.9910  119.4720   C 0  0  0  0  0  0  0  0  0  0  0  0
   46.0410  135.6470  124.7810   O 0  0  0  0  0  0  0  0  0  0  0  0
   47.2170  136.0470  122.1060   C 0  0  0  0  0  0  0  0  0  0  0  0
   47.5020  138.2070  120.6840   C 0  0  0  0  0  0  0  0  0  0  0  0
   39.3080  132.3650  118.0700   C 0  0  0  0  0  0  0  0  0  0  0  0
   37.6860  130.8650  119.5060   C 0  0  0  0  0  0  0  0  0  0  0  0
   40.1930  134.2030  119.6560   C 0  0  0  0  0  0  0  0  0  0  0  0
   43.8560  132.5260  119.6780   C 0  0  0  0  0  0  0  0  0  0  0  0
   48.6720  131.5820  116.8470   C 0  0  0  0  0  0  0  0  0  0  0  0
   42.7420  130.9790  121.3520   C 0  0  0  0  0  0  0  0  0  0  0  0
   37.8730  132.1630  118.6960   C 0  0  0  0  0  0  0  0  0  0  0  0
   44.7130  131.6630  119.4560   O 0  0  0  0  0  0  0  0  0  0  0  0
   42.7350  135.3830  116.4510   C 0  0  0  0  0  0  0  0  0  0  0  0
   44.0130  133.9650  119.1770   C 0  0  0  0  0  0  0  0  0  0  0  0
   48.3460  132.6410  119.5440   C 0  0  0  0  0  0  0  0  0  0  0  0
   38.1010  130.9100  120.9820   C 0  0  0  0  0  0  0  0  0  0  0  0
   40.0690  133.5660  114.1500   C 0  0  0  0  0  0  0  0  0  0  0  0
   49.4030  138.3270  118.9900   C 0  0  0  0  0  0  0  0  0  0  0  0
   37.2410  131.8850  123.2860   C 0  0  0  0  0  0  0  0  0  0  0  0
   40.3920  132.7930  119.1020   C 0  0  0  0  0  0  0  0  0  0  0  0
   44.2150  135.2970  116.8930   C 0  0  0  0  0  0  0  0  0  0  0  0
   36.9380  131.3500  121.8740   C 0  0  0  0  0  0  0  0  0  0  0  0
   39.4720  132.9050  123.8390   C 0  0  0  0  0  0  0  0  0  0  0  0
   49.3540  134.6880  118.4580   C 0  0  0  0  0  0  0  0  0  0  0  0
   39.7000  131.1320  117.4480   O 0  0  0  0  0  0  0  0  0  0  0  0
   35.9790  132.4760  123.9080   C 0  0  0  0  0  0  0  0  0  0  0  0
   49.9000  135.1950  119.6710   C 0  0  0  0  0  0  0  0  0  0  0  0
   40.9660  133.4270  112.8370   C 0  0  0  0  0  0  0  0  0  0  0  0
   37.2170  129.8440  118.9880   O 0  0  0  0  0  0  0  0  0  0  0  0
   49.1240  136.2010  120.5600   C 0  0  0  0  0  0  0  0  0  0  0  0
   49.4660  135.3930  117.4300   O 0  0  0  0  0  0  0  0  0  0  0  0
   43.0090  134.2430  114.1400   C 0  0  0  0  0  0  0  0  0  0  0  0
   38.6520  129.5420  121.4290   C 0  0  0  0  0  0  0  0  0  0  0  0
   51.0280  134.8230  120.0290   O 0  0  0  0  0  0  0  0  0  0  0  0
   48.1240  135.4240  121.2190   O 0  0  0  0  0  0  0  0  0  0  0  0
   41.8430  133.5100  123.9280   C 0  0  0  0  0  0  0  0  0  0  0  0
   42.5670  132.2310  120.4620   C 0  0  0  0  0  0  0  0  0  0  0  0
   44.4820  134.0110  117.7300   C 0  0  0  0  0  0  0  0  0  0  0  0
   46.6730  133.1620  116.8660   C 0  0  0  0  0  0  0  0  0  0  0  0
   45.2380  135.3800  123.6520   C 0  0  0  0  0  0  0  0  0  0  0  0
   44.2460  134.2600  123.9760   C 0  0  0  0  0  0  0  0  0  0  0  0
   42.9490  134.4600  123.6800   C 0  0  0  0  0  0  0  0  0  0  0  0
   44.8540  132.9880  124.6370   C 0  0  0  0  0  0  0  0  0  0  0  0
   48.1940  133.0330  117.0300   C 0  0  0  0  0  0  0  0  0  0  0  0
   45.8710  133.8670  117.8150   O 0  0  0  0  0  0  0  0  0  0  0  0
   48.7150  133.4880  118.3590   N 0  0  0  0  0  0  0  0  0  0  0  0
   38.7520  134.0130  113.8030   O 0  0  0  0  0  0  0  0  0  0  0  0
   50.0290  136.7600  121.5280   O 0  0  0  0  0  0  0  0  0  0  0  0
   38.5660  135.2690  113.2000   C 0  0  0  0  0  0  0  0  0  0  0  0
   40.5960  133.8350  123.5820   C 0  0  0  0  0  0  0  0  0  0  0  0
   48.4110  137.3760  119.7440   C 0  0  0  0  0  0  0  0  0  0  0  0
   35.8180  132.9020  117.7660   C 0  0  0  0  0  0  0  0  0  0  0  0
   46.1100  132.6420  115.8960   O 0  0  0  0  0  0  0  0  0  0  0  0
 62 35  1  0  0  0  0
  7 31  1  0  0  0  0
 33 25  1  0  0  0  0
 32 13  2  0  0  0  0
 31 38  1  0  0  0  0
 12 10  1  0  0  0  0
 53 55  1  0  0  0  0
 20 24  2  0  0  0  0
 27 58  1  0  0  0  0
 49 22  1  0  0  0  0
 18 23  1  0  0  0  0
  9 64  1  0  0  0  0
 63 16  1  0  0  0  0
  6 15  1  0  0  0  0
 17 32  1  0  0  0  0
 25 12  1  0  0  0  0
 50 33  1  0  0  0  0
 53 54  2  0  0  0  0
 39 46  2  0  0  0  0
 47 15  1  0  0  0  0
 58 36  1  0  0  0  0
 63 30  1  0  0  0  0
 40  2  1  0  0  0  0
 56 58  1  0  0  0  0
 23  9  1  0  0  0  0
 36 39  1  0  0  0  0
 42 63  1  0  0  0  0
 40  8  1  0  0  0  0
 15 11  1  0  0  0  0
 12 44  1  0  0  0  0
 20 26  1  0  0  0  0
 14  5  1  0  0  0  0
 11 52  1  0  0  0  0
 48 62  2  0  0  0  0
 26 50  1  0  0  0  0
 13 49  1  0  0  0  0
 36 43  2  0  0  0  0
 28 18  1  0  0  0  0
 59 61  1  0  0  0  0
 52 14  1  0  0  0  0
 39 42  1  0  0  0  0
  8 44  1  0  0  0  0
 34 28  1  0  0  0  0
 31 34  1  0  0  0  0
 56 21  1  0  0  0  0
 32 19  1  0  0  0  0
 52 53  1  0  0  0  0
 23 17  1  0  0  0  0
 29 40  1  0  0  0  0
 49 20  1  0  0  0  0
 33  1  1  0  0  0  0
 42 60  1  0  0  0  0
 54 48  1  0  0  0  0
 18 41  2  0  0  0  0
 51 56  1  0  0  0  0
  3  4  1  0  0  0  0
 29 59  1  0  0  0  0
 16  6  1  0  0  0  0
 28 45  1  0  0  0  0
 21  3  1  0  0  0  0
 42 47  1  0  0  0  0
 17 37  1  0  0  0  0
 51 57  1  0  0  0  0
  4 27  1  0  0  0  0
 10 29  1  0  0  0  0
 51 65  2  0  0  0  0
 35  7  2  0  0  0  0
 57 50  1  0  0  0  0
A    1
C49
A    2
O13
A    3
C4
A    4
C5
A    5
C50
A    6
C13
A    7
C22
A    8
C41
A    9
O9
A   10
C38
A   11
C15
A   12
C37
A   13
C30
A   14
O7
A   15
C14
A   16
C12
A   17
C28
A   18
C26
A   19
C47
A   20
C32
A   21
C3
A   22
C48
A   23
C27
A   24
O11
A   25
C36
A   26
C33
A   27
C6
A   28
C25
A   29
C39
A   30
C43
A   31
C23
A   32
C29
A   33
C35
A   34
C24
A   35
C21
A   36
C8
A   37
O10
A   38
C45
A   39
C9
A   40
C40
A   41
O8
A   42
C10
A   43
O3
A   44
C42
A   45
C46
A   46
O4
A   47
O5
A   48
C19
A   49
C31
A   50
C34
A   51
C1
A   52
C16
A   53
C17
A   54
C18
A   55
C44
A   56
C2
A   57
O1
A   58
N7
A   59
O12
A   60
O6
A   61
C52
A   62
C20
A   63
C11
A   64
C51
A   65
O2
M  END
>  <InstanceId>
1Z58_RAP

>  <ChemCompId>
RAP

>  <PdbId>
1Z58

>  <ChainId>
2

>  <ResidueNumber>
2881

>  <InsertionCode>
null

>  <Model>
1

>  <AltIds>


>  <MissingHeavyAtoms>
0

>  <ObservedFormula>
C51 N O13

>  <AsymId>
B

>  <SeqNum>
2881

>  <Name>
RAPAMYCIN IMMUNOSUPPRESSANT DRUG

>  <SystematicName>
null

>  <Synonyms>


>  <Type>
NON-POLYMER

>  <Formula>
C51 H79 N O13

>  <MolecularWeight>
914.172

>  <ModifiedDate>
2011-06-04

>  <Parent>


>  <OneLetterCode>


>  <SubcomponentList>


>  <AmbiguousFlag>
N

>  <InChI>
InChI=1S/C51H79NO13/c1-30-16-12-11-13-17-31(2)42(61-8)28-38-21-19-36(7)51(60,65-38)48(57)49(58)52-23-15-14-18-39(52)50(59)64-43(33(4)26-37-20-22-40(53)44(27-37)62-9)29-41(54)32(3)25-35(6)46(56)47(63-10)45(55)34(5)24-30/h11-13,16-17,25,30,32-34,36-40,42-44,46-47,53,56,60H,14-15,18-24,26-29H2,1-10H3/b13-11+,16-12+,31-17+,35-25+/t30-,32-,33-,34-,36-,37+,38+,39+,40-,42+,43+,44-,46-,47+,51-/m1/s1

>  <InChIKey>
QFJCIRLUMZQUOT-HPLJOQBZSA-N

>  <SMILES>
C[C@@H]1CC[C@H]2C[C@@H](C(=CC=C\C=C\[C@H](C[C@H](C(=O)[C@@H]([C@@H](/C(=C/[C@H](C(=O)C[C@H](OC(=O)[C@@H]3CCCCN3C(=O)C(=O)[C@@]1(O2)O)[C@H](C)C[C@@H]4CC[C@H]([C@@H](C4)OC)O)C)/C)O)OC)C)C)C)OC

$$$$
