2DG3_RAP_A_501
  RCSB PDB05141717003D
Coordinates from PDB:2DG3:A:501 without hydrogens
 65 68  0  0  0  0            999 V2000
    0.0010   18.3450   10.6040   C 0  0  0  0  0  0  0  0  0  0  0  0
    3.5960   15.3880   12.3630   C 0  0  0  0  0  0  0  0  0  0  0  0
   -0.7340   12.6080   15.0650   C 0  0  0  0  0  0  0  0  0  0  0  0
    4.6500    6.1410   15.0310   O 0  0  0  0  0  0  0  0  0  0  0  0
    4.6540    8.3310   12.1420   C 0  0  0  0  0  0  0  0  0  0  0  0
    4.1800    9.4560   12.9280   O 0  0  0  0  0  0  0  0  0  0  0  0
    3.5010    6.4750   14.7780   C 0  0  0  0  0  0  0  0  0  0  0  0
    1.7840    5.3640   15.8720   O 0  0  0  0  0  0  0  0  0  0  0  0
   -1.2820   11.3480   17.0680   O 0  0  0  0  0  0  0  0  0  0  0  0
    1.2360    9.7390   16.7500   C 0  0  0  0  0  0  0  0  0  0  0  0
    5.3400   17.5710    8.9310   O 0  0  0  0  0  0  0  0  0  0  0  0
    2.4770    6.3710   15.8260   C 0  0  0  0  0  0  0  0  0  0  0  0
    3.6830   14.8860   10.9460   C 0  0  0  0  0  0  0  0  0  0  0  0
    1.4480    7.0150   17.9060   O 0  0  0  0  0  0  0  0  0  0  0  0
    9.8240   13.0450    8.3310   O 0  0  0  0  0  0  0  0  0  0  0  0
    8.4730   16.3850    9.8250   C 0  0  0  0  0  0  0  0  0  0  0  0
    9.3630   12.8550    9.6750   C 0  0  0  0  0  0  0  0  0  0  0  0
    3.1330    6.9330   13.5710   N 0  0  0  0  0  0  0  0  0  0  0  0
    3.5780   11.7560   12.8750   C 0  0  0  0  0  0  0  0  0  0  0  0
    4.3330    7.0840   18.2390   C 0  0  0  0  0  0  0  0  0  0  0  0
    3.3220    9.3800   18.1260   C 0  0  0  0  0  0  0  0  0  0  0  0
    0.6920   16.2030    8.2160   C 0  0  0  0  0  0  0  0  0  0  0  0
   -1.9000   12.0980   14.2580   C 0  0  0  0  0  0  0  0  0  0  0  0
    1.2430    6.5720   12.0950   C 0  0  0  0  0  0  0  0  0  0  0  0
    2.5200   10.3740   17.2860   C 0  0  0  0  0  0  0  0  0  0  0  0
    4.6440   15.5560    9.9970   C 0  0  0  0  0  0  0  0  0  0  0  0
    0.6360   12.8950   10.6130   C 0  0  0  0  0  0  0  0  0  0  0  0
    3.2170   17.1120    7.4660   O 0  0  0  0  0  0  0  0  0  0  0  0
    1.9480   13.0940   11.3710   C 0  0  0  0  0  0  0  0  0  0  0  0
    2.9360   13.8500   10.5070   C 0  0  0  0  0  0  0  0  0  0  0  0
    8.4720   14.0240   10.1030   C 0  0  0  0  0  0  0  0  0  0  0  0
    4.1400    6.9540   12.4830   C 0  0  0  0  0  0  0  0  0  0  0  0
    5.4080   18.9880    9.1070   C 0  0  0  0  0  0  0  0  0  0  0  0
    2.2560   10.7460   11.1660   O 0  0  0  0  0  0  0  0  0  0  0  0
   -0.3540   19.7750   11.0030   C 0  0  0  0  0  0  0  0  0  0  0  0
   -1.7280   12.3370   17.9990   C 0  0  0  0  0  0  0  0  0  0  0  0
    3.5590    8.0740   17.3680   C 0  0  0  0  0  0  0  0  0  0  0  0
    4.2190   16.9730    9.5930   C 0  0  0  0  0  0  0  0  0  0  0  0
    3.5660    6.2530   11.2440   C 0  0  0  0  0  0  0  0  0  0  0  0
    1.6130   16.9240    9.2040   C 0  0  0  0  0  0  0  0  0  0  0  0
    5.4620    8.5020   11.2340   O 0  0  0  0  0  0  0  0  0  0  0  0
    4.8330   14.7540    8.8260   O 0  0  0  0  0  0  0  0  0  0  0  0
    6.7020   12.3120   13.0910   C 0  0  0  0  0  0  0  0  0  0  0  0
    0.4190   17.5390   11.8150   C 0  0  0  0  0  0  0  0  0  0  0  0
    2.5630   11.7760   11.7520   C 0  0  0  0  0  0  0  0  0  0  0  0
    7.1680   12.4400   11.6400   C 0  0  0  0  0  0  0  0  0  0  0  0
    8.6260   11.5210    9.8040   C 0  0  0  0  0  0  0  0  0  0  0  0
    2.1530    6.7040   10.8850   C 0  0  0  0  0  0  0  0  0  0  0  0
    5.9590   11.0200   13.4580   C 0  0  0  0  0  0  0  0  0  0  0  0
    1.5260    8.5020   16.0910   O 0  0  0  0  0  0  0  0  0  0  0  0
    8.1250   11.3140   11.2340   C 0  0  0  0  0  0  0  0  0  0  0  0
   -0.5290   14.6070   13.6280   C 0  0  0  0  0  0  0  0  0  0  0  0
    5.6620   11.0230   14.9580   C 0  0  0  0  0  0  0  0  0  0  0  0
   -0.3980   16.6060   12.3000   C 0  0  0  0  0  0  0  0  0  0  0  0
    1.1040   18.3280    9.5430   C 0  0  0  0  0  0  0  0  0  0  0  0
    9.2530   15.2220   10.1090   O 0  0  0  0  0  0  0  0  0  0  0  0
    2.2440    7.4960   16.8160   C 0  0  0  0  0  0  0  0  0  0  0  0
    0.0120   15.8110   13.4530   C 0  0  0  0  0  0  0  0  0  0  0  0
    0.5960   10.6390   15.6960   C 0  0  0  0  0  0  0  0  0  0  0  0
    7.8690   13.7950   11.4940   C 0  0  0  0  0  0  0  0  0  0  0  0
   -0.2160   11.8170   16.2400   C 0  0  0  0  0  0  0  0  0  0  0  0
    1.8010    7.4470   13.2130   C 0  0  0  0  0  0  0  0  0  0  0  0
    4.7000   10.7490   12.6160   C 0  0  0  0  0  0  0  0  0  0  0  0
    3.0250   17.0000    8.6680   C 0  0  0  0  0  0  0  0  0  0  0  0
   -0.1240   13.7690   14.7570   C 0  0  0  0  0  0  0  0  0  0  0  0
 31 17  1  0  0  0  0
 45 19  1  0  0  0  0
 46 60  1  0  0  0  0
 65 52  1  0  0  0  0
 12  8  2  0  0  0  0
 49 53  1  0  0  0  0
 59 61  1  0  0  0  0
 62 18  1  0  0  0  0
 44  1  1  0  0  0  0
 61  9  1  0  0  0  0
 55 40  1  0  0  0  0
 32 18  1  0  0  0  0
 61  3  1  0  0  0  0
 54 44  2  0  0  0  0
 24 62  1  0  0  0  0
 30 29  1  0  0  0  0
 48 24  1  0  0  0  0
 45 34  2  0  0  0  0
 10 59  1  0  0  0  0
 37 20  1  0  0  0  0
 52 58  2  0  0  0  0
 12 57  1  0  0  0  0
 64 28  2  0  0  0  0
 56 16  1  0  0  0  0
 17 47  1  0  0  0  0
 57 50  1  0  0  0  0
 38 11  1  0  0  0  0
 57 37  1  0  0  0  0
 29 45  1  0  0  0  0
  3 23  1  0  0  0  0
  1 55  1  0  0  0  0
 46 51  1  0  0  0  0
 18  7  1  0  0  0  0
  3 65  2  0  0  0  0
  5 32  1  0  0  0  0
 63 49  1  0  0  0  0
  1 35  1  0  0  0  0
  5 41  2  0  0  0  0
 26 42  1  0  0  0  0
 60 31  1  0  0  0  0
 39 48  1  0  0  0  0
  9 36  1  0  0  0  0
 47 51  1  0  0  0  0
 37 21  1  0  0  0  0
 19 63  1  0  0  0  0
 13 30  2  0  0  0  0
 50 10  1  0  0  0  0
 32 39  1  0  0  0  0
 57 14  1  0  0  0  0
 31 56  1  0  0  0  0
 25 10  1  0  0  0  0
 26 13  1  0  0  0  0
 40 22  1  0  0  0  0
 11 33  1  0  0  0  0
 21 25  1  0  0  0  0
 17 15  1  0  0  0  0
 49 43  1  0  0  0  0
 40 64  1  0  0  0  0
 29 27  1  0  0  0  0
  6 63  1  0  0  0  0
  7  4  2  0  0  0  0
 64 38  1  0  0  0  0
  7 12  1  0  0  0  0
 13  2  1  0  0  0  0
 58 54  1  0  0  0  0
  5  6  1  0  0  0  0
 38 26  1  0  0  0  0
 43 46  1  0  0  0  0
A    1
C23
A    2
C47
A    3
C17
A    4
O3
A    5
C1
A    6
O1
A    7
C8
A    8
O4
A    9
O7
A   10
C14
A   11
O9
A   12
C9
A   13
C29
A   14
O6
A   15
O13
A   16
C52
A   17
C40
A   18
N7
A   19
C33
A   20
C43
A   21
C12
A   22
C46
A   23
C44
A   24
C5
A   25
C13
A   26
C28
A   27
C48
A   28
O8
A   29
C31
A   30
C30
A   31
C39
A   32
C2
A   33
C51
A   34
O11
A   35
C45
A   36
C50
A   37
C11
A   38
C27
A   39
C3
A   40
C25
A   41
O2
A   42
O10
A   43
C36
A   44
C22
A   45
C32
A   46
C37
A   47
C41
A   48
C4
A   49
C35
A   50
O5
A   51
C42
A   52
C19
A   53
C49
A   54
C21
A   55
C24
A   56
O12
A   57
C10
A   58
C20
A   59
C15
A   60
C38
A   61
C16
A   62
C6
A   63
C34
A   64
C26
A   65
C18
M  END
>  <InstanceId>
2DG3_RAP_A_501

>  <ChemCompId>
RAP

>  <PdbId>
2DG3

>  <ChainId>
A

>  <ResidueNumber>
501

>  <InsertionCode>


>  <Model>
1

>  <AltIds>


>  <MissingHeavyAtoms>
0

>  <ObservedFormula>
C51 N O13

>  <AsymId>
B

>  <SeqNum>
501

>  <Name>
RAPAMYCIN IMMUNOSUPPRESSANT DRUG

>  <SystematicName>
null

>  <Synonyms>


>  <Type>
NON-POLYMER

>  <Formula>
C51 H79 N O13

>  <MolecularWeight>
914.172

>  <ModifiedDate>
2011-06-04

>  <Parent>


>  <OneLetterCode>


>  <SubcomponentList>


>  <AmbiguousFlag>
N

>  <InChI>
null

>  <InChIKey>
null

>  <SMILES>
C[C@@H]1CC[C@H]2C[C@@H](C(=CC=C\C=C\[C@H](C[C@H](C(=O)[C@@H]([C@@H](/C(=C/[C@H](C(=O)C[C@H](OC(=O)[C@@H]3CCCCN3C(=O)C(=O)[C@@]1(O2)O)[C@H](C)C[C@@H]4CC[C@H]([C@@H](C4)OC)O)C)/C)O)OC)C)C)C)OC

$$$$
