2DG4_RAP_A_501
  RCSB PDB05141717003D
Coordinates from PDB:2DG4:A:501 without hydrogens
 65 68  0  0  0  0            999 V2000
   -0.8850   17.9030   10.2830   C 0  0  0  0  0  0  0  0  0  0  0  0
    2.7480   14.8630   12.4840   C 0  0  0  0  0  0  0  0  0  0  0  0
   -1.4740   11.9190   14.5660   C 0  0  0  0  0  0  0  0  0  0  0  0
    4.5350    5.9400   14.7430   O 0  0  0  0  0  0  0  0  0  0  0  0
    4.4140    8.0710   11.8570   C 0  0  0  0  0  0  0  0  0  0  0  0
    3.8670    9.1100   12.7070   O 0  0  0  0  0  0  0  0  0  0  0  0
    3.3720    6.1860   14.4550   C 0  0  0  0  0  0  0  0  0  0  0  0
    1.7270    4.9960   15.5630   O 0  0  0  0  0  0  0  0  0  0  0  0
   -1.8850   10.6670   16.6150   O 0  0  0  0  0  0  0  0  0  0  0  0
    0.7740    9.2900   16.2930   C 0  0  0  0  0  0  0  0  0  0  0  0
    4.5080   17.5540    9.5810   O 0  0  0  0  0  0  0  0  0  0  0  0
    2.3430    6.0470   15.4910   C 0  0  0  0  0  0  0  0  0  0  0  0
    2.9500   14.5150   11.0320   C 0  0  0  0  0  0  0  0  0  0  0  0
    1.2580    6.6720   17.5530   O 0  0  0  0  0  0  0  0  0  0  0  0
    9.1160   13.0780    8.1040   O 0  0  0  0  0  0  0  0  0  0  0  0
    7.9830   16.1840    9.0430   C 0  0  0  0  0  0  0  0  0  0  0  0
    8.7360   12.8610    9.4680   C 0  0  0  0  0  0  0  0  0  0  0  0
    2.9930    6.5710   13.2260   N 0  0  0  0  0  0  0  0  0  0  0  0
    2.9930   11.3110   12.7150   C 0  0  0  0  0  0  0  0  0  0  0  0
    4.0960    7.0440   17.9200   C 0  0  0  0  0  0  0  0  0  0  0  0
    2.8970    9.2260   17.6530   C 0  0  0  0  0  0  0  0  0  0  0  0
    0.2110   15.8200    7.9210   C 0  0  0  0  0  0  0  0  0  0  0  0
   -2.5810   11.2870   13.7630   C 0  0  0  0  0  0  0  0  0  0  0  0
    1.1790    6.0840   11.6620   C 0  0  0  0  0  0  0  0  0  0  0  0
    1.9890   10.0830   16.7730   C 0  0  0  0  0  0  0  0  0  0  0  0
    3.9170   15.3270   10.2090   C 0  0  0  0  0  0  0  0  0  0  0  0
    0.0980   12.3420   10.3070   C 0  0  0  0  0  0  0  0  0  0  0  0
    2.7900   16.8640    7.6140   O 0  0  0  0  0  0  0  0  0  0  0  0
    1.3200   12.5940   11.1890   C 0  0  0  0  0  0  0  0  0  0  0  0
    2.2970   13.4860   10.4550   C 0  0  0  0  0  0  0  0  0  0  0  0
    7.7920   13.9780    9.9160   C 0  0  0  0  0  0  0  0  0  0  0  0
    4.0210    6.6510   12.1640   C 0  0  0  0  0  0  0  0  0  0  0  0
    4.3940   18.8620   10.1400   C 0  0  0  0  0  0  0  0  0  0  0  0
    1.8140   10.2860   10.9190   O 0  0  0  0  0  0  0  0  0  0  0  0
   -1.2340   19.3130   10.7470   C 0  0  0  0  0  0  0  0  0  0  0  0
   -2.3340   11.6320   17.5650   C 0  0  0  0  0  0  0  0  0  0  0  0
    3.2580    7.9040   16.9740   C 0  0  0  0  0  0  0  0  0  0  0  0
    3.3870   16.7290    9.9010   C 0  0  0  0  0  0  0  0  0  0  0  0
    3.5490    5.9180   10.9010   C 0  0  0  0  0  0  0  0  0  0  0  0
    0.9220   16.5710    9.0470   C 0  0  0  0  0  0  0  0  0  0  0  0
    5.1770    8.3370   10.9380   O 0  0  0  0  0  0  0  0  0  0  0  0
    4.2270   14.6530    8.9840   O 0  0  0  0  0  0  0  0  0  0  0  0
    6.1080   12.1680   12.8910   C 0  0  0  0  0  0  0  0  0  0  0  0
   -0.5510   17.0100   11.4600   C 0  0  0  0  0  0  0  0  0  0  0  0
    2.0220   11.3110   11.5510   C 0  0  0  0  0  0  0  0  0  0  0  0
    6.5740   12.3240   11.4410   C 0  0  0  0  0  0  0  0  0  0  0  0
    8.1020   11.4790    9.6190   C 0  0  0  0  0  0  0  0  0  0  0  0
    2.1230    6.2650   10.4830   C 0  0  0  0  0  0  0  0  0  0  0  0
    5.4660   10.8240   13.2520   C 0  0  0  0  0  0  0  0  0  0  0  0
    1.1980    8.0720   15.6720   O 0  0  0  0  0  0  0  0  0  0  0  0
    7.5940   11.2510   11.0440   C 0  0  0  0  0  0  0  0  0  0  0  0
   -1.4460   13.9450   13.1240   C 0  0  0  0  0  0  0  0  0  0  0  0
    5.1890   10.7790   14.7560   C 0  0  0  0  0  0  0  0  0  0  0  0
   -1.3410   15.9970   11.8160   C 0  0  0  0  0  0  0  0  0  0  0  0
    0.2900   17.9420    9.3020   C 0  0  0  0  0  0  0  0  0  0  0  0
    8.5120   15.2120    9.9460   O 0  0  0  0  0  0  0  0  0  0  0  0
    2.0090    7.1790   16.4420   C 0  0  0  0  0  0  0  0  0  0  0  0
   -0.9350   15.1630   12.9450   C 0  0  0  0  0  0  0  0  0  0  0  0
    0.0140   10.0670   15.2220   C 0  0  0  0  0  0  0  0  0  0  0  0
    7.2060   13.7110   11.3040   C 0  0  0  0  0  0  0  0  0  0  0  0
   -0.8770   11.1940   15.7480   C 0  0  0  0  0  0  0  0  0  0  0  0
    1.6330    6.9670   12.8200   C 0  0  0  0  0  0  0  0  0  0  0  0
    4.2270   10.4580   12.4180   C 0  0  0  0  0  0  0  0  0  0  0  0
    2.3950   16.7260    8.7620   C 0  0  0  0  0  0  0  0  0  0  0  0
   -0.9830   13.1360   14.2540   C 0  0  0  0  0  0  0  0  0  0  0  0
 31 17  1  0  0  0  0
 45 19  1  0  0  0  0
 46 60  1  0  0  0  0
 65 52  1  0  0  0  0
 12  8  2  0  0  0  0
 49 53  1  0  0  0  0
 59 61  1  0  0  0  0
 62 18  1  0  0  0  0
 44  1  1  0  0  0  0
 61  9  1  0  0  0  0
 55 40  1  0  0  0  0
 32 18  1  0  0  0  0
 61  3  1  0  0  0  0
 54 44  2  0  0  0  0
 24 62  1  0  0  0  0
 30 29  1  0  0  0  0
 48 24  1  0  0  0  0
 45 34  2  0  0  0  0
 10 59  1  0  0  0  0
 37 20  1  0  0  0  0
 52 58  2  0  0  0  0
 12 57  1  0  0  0  0
 64 28  2  0  0  0  0
 56 16  1  0  0  0  0
 17 47  1  0  0  0  0
 57 50  1  0  0  0  0
 38 11  1  0  0  0  0
 57 37  1  0  0  0  0
 29 45  1  0  0  0  0
  3 23  1  0  0  0  0
  1 55  1  0  0  0  0
 46 51  1  0  0  0  0
 18  7  1  0  0  0  0
  3 65  2  0  0  0  0
  5 32  1  0  0  0  0
 63 49  1  0  0  0  0
  1 35  1  0  0  0  0
  5 41  2  0  0  0  0
 26 42  1  0  0  0  0
 60 31  1  0  0  0  0
 39 48  1  0  0  0  0
  9 36  1  0  0  0  0
 47 51  1  0  0  0  0
 37 21  1  0  0  0  0
 19 63  1  0  0  0  0
 13 30  2  0  0  0  0
 50 10  1  0  0  0  0
 32 39  1  0  0  0  0
 57 14  1  0  0  0  0
 31 56  1  0  0  0  0
 25 10  1  0  0  0  0
 26 13  1  0  0  0  0
 40 22  1  0  0  0  0
 11 33  1  0  0  0  0
 21 25  1  0  0  0  0
 17 15  1  0  0  0  0
 49 43  1  0  0  0  0
 40 64  1  0  0  0  0
 29 27  1  0  0  0  0
  6 63  1  0  0  0  0
  7  4  2  0  0  0  0
 64 38  1  0  0  0  0
  7 12  1  0  0  0  0
 13  2  1  0  0  0  0
 58 54  1  0  0  0  0
  5  6  1  0  0  0  0
 38 26  1  0  0  0  0
 43 46  1  0  0  0  0
A    1
C23
A    2
C47
A    3
C17
A    4
O3
A    5
C1
A    6
O1
A    7
C8
A    8
O4
A    9
O7
A   10
C14
A   11
O9
A   12
C9
A   13
C29
A   14
O6
A   15
O13
A   16
C52
A   17
C40
A   18
N7
A   19
C33
A   20
C43
A   21
C12
A   22
C46
A   23
C44
A   24
C5
A   25
C13
A   26
C28
A   27
C48
A   28
O8
A   29
C31
A   30
C30
A   31
C39
A   32
C2
A   33
C51
A   34
O11
A   35
C45
A   36
C50
A   37
C11
A   38
C27
A   39
C3
A   40
C25
A   41
O2
A   42
O10
A   43
C36
A   44
C22
A   45
C32
A   46
C37
A   47
C41
A   48
C4
A   49
C35
A   50
O5
A   51
C42
A   52
C19
A   53
C49
A   54
C21
A   55
C24
A   56
O12
A   57
C10
A   58
C20
A   59
C15
A   60
C38
A   61
C16
A   62
C6
A   63
C34
A   64
C26
A   65
C18
M  END
>  <InstanceId>
2DG4_RAP_A_501

>  <ChemCompId>
RAP

>  <PdbId>
2DG4

>  <ChainId>
A

>  <ResidueNumber>
501

>  <InsertionCode>


>  <Model>
1

>  <AltIds>


>  <MissingHeavyAtoms>
0

>  <ObservedFormula>
C51 N O13

>  <AsymId>
B

>  <SeqNum>
501

>  <Name>
RAPAMYCIN IMMUNOSUPPRESSANT DRUG

>  <SystematicName>
null

>  <Synonyms>


>  <Type>
NON-POLYMER

>  <Formula>
C51 H79 N O13

>  <MolecularWeight>
914.172

>  <ModifiedDate>
2011-06-04

>  <Parent>


>  <OneLetterCode>


>  <SubcomponentList>


>  <AmbiguousFlag>
N

>  <InChI>
null

>  <InChIKey>
null

>  <SMILES>
C[C@@H]1CC[C@H]2C[C@@H](C(=CC=C\C=C\[C@H](C[C@H](C(=O)[C@@H]([C@@H](/C(=C/[C@H](C(=O)C[C@H](OC(=O)[C@@H]3CCCCN3C(=O)C(=O)[C@@]1(O2)O)[C@H](C)C[C@@H]4CC[C@H]([C@@H](C4)OC)O)C)/C)O)OC)C)C)C)OC

$$$$
