2DG9_RAP_A_501
  RCSB PDB05141717003D
Coordinates from PDB:2DG9:A:501 without hydrogens
 65 68  0  0  0  0            999 V2000
   -0.8160   18.1250   10.1790   C 0  0  0  0  0  0  0  0  0  0  0  0
    2.8230   15.0380   11.4680   C 0  0  0  0  0  0  0  0  0  0  0  0
   -1.4390   12.1670   14.4760   C 0  0  0  0  0  0  0  0  0  0  0  0
    4.2620    5.9430   14.1920   O 0  0  0  0  0  0  0  0  0  0  0  0
    3.9980    8.0510   11.2270   C 0  0  0  0  0  0  0  0  0  0  0  0
    3.5330    9.1320   12.0760   O 0  0  0  0  0  0  0  0  0  0  0  0
    3.0900    6.1950   13.9520   C 0  0  0  0  0  0  0  0  0  0  0  0
    1.4640    5.0010   15.0980   O 0  0  0  0  0  0  0  0  0  0  0  0
   -1.8190   10.8240   16.4680   O 0  0  0  0  0  0  0  0  0  0  0  0
    0.7710    9.3590   15.9420   C 0  0  0  0  0  0  0  0  0  0  0  0
    4.2590   17.1820    7.8590   O 0  0  0  0  0  0  0  0  0  0  0  0
    2.0940    6.0430   15.0200   C 0  0  0  0  0  0  0  0  0  0  0  0
    2.7790   14.5220   10.0540   C 0  0  0  0  0  0  0  0  0  0  0  0
    1.0240    6.6740   17.0860   O 0  0  0  0  0  0  0  0  0  0  0  0
    8.7830   12.7650    7.0990   O 0  0  0  0  0  0  0  0  0  0  0  0
    7.5930   16.0720    8.4400   C 0  0  0  0  0  0  0  0  0  0  0  0
    8.4480   12.5850    8.4820   C 0  0  0  0  0  0  0  0  0  0  0  0
    2.6590    6.5960   12.7470   N 0  0  0  0  0  0  0  0  0  0  0  0
    2.7900   11.3780   12.0950   C 0  0  0  0  0  0  0  0  0  0  0  0
    3.8850    6.8090   17.4790   C 0  0  0  0  0  0  0  0  0  0  0  0
    2.9020    9.0980   17.2490   C 0  0  0  0  0  0  0  0  0  0  0  0
   -0.4680   15.8980    7.8570   C 0  0  0  0  0  0  0  0  0  0  0  0
   -2.5960   11.6030   13.6930   C 0  0  0  0  0  0  0  0  0  0  0  0
    0.7450    6.1370   11.3030   C 0  0  0  0  0  0  0  0  0  0  0  0
    2.0740   10.0330   16.3700   C 0  0  0  0  0  0  0  0  0  0  0  0
    3.6490   15.1920    9.0130   C 0  0  0  0  0  0  0  0  0  0  0  0
   -0.2890   12.5390   10.0990   C 0  0  0  0  0  0  0  0  0  0  0  0
    1.9220   16.7670    6.6810   O 0  0  0  0  0  0  0  0  0  0  0  0
    1.1060   12.7310   10.6890   C 0  0  0  0  0  0  0  0  0  0  0  0
    1.9970   13.4740    9.7160   C 0  0  0  0  0  0  0  0  0  0  0  0
    7.5670   13.7480    8.9430   C 0  0  0  0  0  0  0  0  0  0  0  0
    3.6230    6.6490   11.6230   C 0  0  0  0  0  0  0  0  0  0  0  0
    4.3760   18.5970    8.0270   C 0  0  0  0  0  0  0  0  0  0  0  0
    1.4620   10.4030   10.3560   O 0  0  0  0  0  0  0  0  0  0  0  0
   -0.9880   19.5640   10.6630   C 0  0  0  0  0  0  0  0  0  0  0  0
   -2.2950   11.7930   17.4070   C 0  0  0  0  0  0  0  0  0  0  0  0
    3.1340    7.7590   16.5460   C 0  0  0  0  0  0  0  0  0  0  0  0
    3.2200   16.6200    8.6600   C 0  0  0  0  0  0  0  0  0  0  0  0
    3.0520    5.8790   10.4240   C 0  0  0  0  0  0  0  0  0  0  0  0
    0.6090   16.6390    8.6540   C 0  0  0  0  0  0  0  0  0  0  0  0
    4.6780    8.2750   10.2320   O 0  0  0  0  0  0  0  0  0  0  0  0
    3.7100   14.4280    7.8050   O 0  0  0  0  0  0  0  0  0  0  0  0
    5.9550   12.0780   12.0420   C 0  0  0  0  0  0  0  0  0  0  0  0
   -0.3840   17.2090   11.3050   C 0  0  0  0  0  0  0  0  0  0  0  0
    1.7550   11.4120   10.9930   C 0  0  0  0  0  0  0  0  0  0  0  0
    6.3410   12.1820   10.5620   C 0  0  0  0  0  0  0  0  0  0  0  0
    7.7500   11.2400    8.6760   C 0  0  0  0  0  0  0  0  0  0  0  0
    1.6320    6.3150   10.0820   C 0  0  0  0  0  0  0  0  0  0  0  0
    5.2590   10.7840   12.4870   C 0  0  0  0  0  0  0  0  0  0  0  0
    1.0670    8.1320   15.2690   O 0  0  0  0  0  0  0  0  0  0  0  0
    7.2770   11.0500   10.1200   C 0  0  0  0  0  0  0  0  0  0  0  0
   -1.4270   14.2590   13.1420   C 0  0  0  0  0  0  0  0  0  0  0  0
    5.0820   10.7830   14.0080   C 0  0  0  0  0  0  0  0  0  0  0  0
   -1.1870   16.2330   11.7350   C 0  0  0  0  0  0  0  0  0  0  0  0
    0.1900   18.0670    9.0280   C 0  0  0  0  0  0  0  0  0  0  0  0
    8.3400   14.9460    8.8980   O 0  0  0  0  0  0  0  0  0  0  0  0
    1.8220    7.1620   15.9990   C 0  0  0  0  0  0  0  0  0  0  0  0
   -0.7350   15.3470   12.8070   C 0  0  0  0  0  0  0  0  0  0  0  0
    0.0040   10.2310   14.9530   C 0  0  0  0  0  0  0  0  0  0  0  0
    7.0220   13.5380   10.3610   C 0  0  0  0  0  0  0  0  0  0  0  0
   -0.8200   11.3570   15.5890   C 0  0  0  0  0  0  0  0  0  0  0  0
    1.2840    7.0140   12.4280   C 0  0  0  0  0  0  0  0  0  0  0  0
    3.9540   10.4550   11.7420   C 0  0  0  0  0  0  0  0  0  0  0  0
    1.9150   16.6750    7.9010   C 0  0  0  0  0  0  0  0  0  0  0  0
   -0.9270   13.3860   14.2090   C 0  0  0  0  0  0  0  0  0  0  0  0
 31 17  1  0  0  0  0
 45 19  1  0  0  0  0
 46 60  1  0  0  0  0
 65 52  1  0  0  0  0
 12  8  2  0  0  0  0
 49 53  1  0  0  0  0
 59 61  1  0  0  0  0
 62 18  1  0  0  0  0
 44  1  1  0  0  0  0
 61  9  1  0  0  0  0
 55 40  1  0  0  0  0
 32 18  1  0  0  0  0
 61  3  1  0  0  0  0
 54 44  2  0  0  0  0
 24 62  1  0  0  0  0
 30 29  1  0  0  0  0
 48 24  1  0  0  0  0
 45 34  2  0  0  0  0
 10 59  1  0  0  0  0
 37 20  1  0  0  0  0
 52 58  2  0  0  0  0
 12 57  1  0  0  0  0
 64 28  2  0  0  0  0
 56 16  1  0  0  0  0
 17 47  1  0  0  0  0
 57 50  1  0  0  0  0
 38 11  1  0  0  0  0
 57 37  1  0  0  0  0
 29 45  1  0  0  0  0
  3 23  1  0  0  0  0
  1 55  1  0  0  0  0
 46 51  1  0  0  0  0
 18  7  1  0  0  0  0
  3 65  2  0  0  0  0
  5 32  1  0  0  0  0
 63 49  1  0  0  0  0
  1 35  1  0  0  0  0
  5 41  2  0  0  0  0
 26 42  1  0  0  0  0
 60 31  1  0  0  0  0
 39 48  1  0  0  0  0
  9 36  1  0  0  0  0
 47 51  1  0  0  0  0
 37 21  1  0  0  0  0
 19 63  1  0  0  0  0
 13 30  2  0  0  0  0
 50 10  1  0  0  0  0
 32 39  1  0  0  0  0
 57 14  1  0  0  0  0
 31 56  1  0  0  0  0
 25 10  1  0  0  0  0
 26 13  1  0  0  0  0
 40 22  1  0  0  0  0
 11 33  1  0  0  0  0
 21 25  1  0  0  0  0
 17 15  1  0  0  0  0
 49 43  1  0  0  0  0
 40 64  1  0  0  0  0
 29 27  1  0  0  0  0
  6 63  1  0  0  0  0
  7  4  2  0  0  0  0
 64 38  1  0  0  0  0
  7 12  1  0  0  0  0
 13  2  1  0  0  0  0
 58 54  1  0  0  0  0
  5  6  1  0  0  0  0
 38 26  1  0  0  0  0
 43 46  1  0  0  0  0
A    1
C23
A    2
C47
A    3
C17
A    4
O3
A    5
C1
A    6
O1
A    7
C8
A    8
O4
A    9
O7
A   10
C14
A   11
O9
A   12
C9
A   13
C29
A   14
O6
A   15
O13
A   16
C52
A   17
C40
A   18
N7
A   19
C33
A   20
C43
A   21
C12
A   22
C46
A   23
C44
A   24
C5
A   25
C13
A   26
C28
A   27
C48
A   28
O8
A   29
C31
A   30
C30
A   31
C39
A   32
C2
A   33
C51
A   34
O11
A   35
C45
A   36
C50
A   37
C11
A   38
C27
A   39
C3
A   40
C25
A   41
O2
A   42
O10
A   43
C36
A   44
C22
A   45
C32
A   46
C37
A   47
C41
A   48
C4
A   49
C35
A   50
O5
A   51
C42
A   52
C19
A   53
C49
A   54
C21
A   55
C24
A   56
O12
A   57
C10
A   58
C20
A   59
C15
A   60
C38
A   61
C16
A   62
C6
A   63
C34
A   64
C26
A   65
C18
M  END
>  <InstanceId>
2DG9_RAP_A_501

>  <ChemCompId>
RAP

>  <PdbId>
2DG9

>  <ChainId>
A

>  <ResidueNumber>
501

>  <InsertionCode>


>  <Model>
1

>  <AltIds>


>  <MissingHeavyAtoms>
0

>  <ObservedFormula>
C51 N O13

>  <AsymId>
B

>  <SeqNum>
501

>  <Name>
RAPAMYCIN IMMUNOSUPPRESSANT DRUG

>  <SystematicName>
null

>  <Synonyms>


>  <Type>
NON-POLYMER

>  <Formula>
C51 H79 N O13

>  <MolecularWeight>
914.172

>  <ModifiedDate>
2011-06-04

>  <Parent>


>  <OneLetterCode>


>  <SubcomponentList>


>  <AmbiguousFlag>
N

>  <InChI>
null

>  <InChIKey>
null

>  <SMILES>
C[C@@H]1CC[C@H]2C[C@@H](C(=CC=C\C=C\[C@H](C[C@H](C(=O)[C@@H]([C@@H](/C(=C/[C@H](C(=O)C[C@H](OC(=O)[C@@H]3CCCCN3C(=O)C(=O)[C@@]1(O2)O)[C@H](C)C[C@@H]4CC[C@H]([C@@H](C4)OC)O)C)/C)O)OC)C)C)C)OC

$$$$
