2VCD_RAP_A_138
  RCSB PDB05141717003D
Coordinates from PDB:2VCD:A:138 without hydrogens
 65 68  0  0  0  0            999 V2000
   99.3430    6.3930  -17.5170   C 0  0  0  0  0  0  0  0  0  0  0  0
  100.5730    2.6440  -13.8010   C 0  0  0  0  0  0  0  0  0  0  0  0
   97.5380    7.3330  -10.5410   C 0  0  0  0  0  0  0  0  0  0  0  0
   99.1090    5.8600   -6.7160   O 0  0  0  0  0  0  0  0  0  0  0  0
  101.2400    4.9140   -7.7480   C 0  0  0  0  0  0  0  0  0  0  0  0
  102.5070    4.9760   -8.2400   O 0  0  0  0  0  0  0  0  0  0  0  0
   98.7490    4.7200   -6.4260   C 0  0  0  0  0  0  0  0  0  0  0  0
   96.9230    3.3540   -6.2720   O 0  0  0  0  0  0  0  0  0  0  0  0
   97.1560    9.5540  -10.0320   O 0  0  0  0  0  0  0  0  0  0  0  0
   95.7780    7.3560   -7.6110   C 0  0  0  0  0  0  0  0  0  0  0  0
  102.9660    6.2030  -14.0250   O 0  0  0  0  0  0  0  0  0  0  0  0
   97.3960    4.4870   -6.2110   C 0  0  0  0  0  0  0  0  0  0  0  0
  101.3010    3.8280  -13.7540   C 0  0  0  0  0  0  0  0  0  0  0  0
   95.2170    5.2060   -5.9100   O 0  0  0  0  0  0  0  0  0  0  0  0
  106.3710   11.8310   -7.5710   O 0  0  0  0  0  0  0  0  0  0  0  0
  102.3110   12.4490   -7.3930   C 0  0  0  0  0  0  0  0  0  0  0  0
  105.5340   10.7160   -7.9070   C 0  0  0  0  0  0  0  0  0  0  0  0
   99.6790    3.7550   -6.3940   N 0  0  0  0  0  0  0  0  0  0  0  0
  101.6100    5.5410  -10.4580   C 0  0  0  0  0  0  0  0  0  0  0  0
   96.9060    5.9960   -3.7780   C 0  0  0  0  0  0  0  0  0  0  0  0
   96.2490    7.8830   -5.2550   C 0  0  0  0  0  0  0  0  0  0  0  0
  103.1980    6.6940  -17.5650   C 0  0  0  0  0  0  0  0  0  0  0  0
   97.7280    5.9900  -10.2370   C 0  0  0  0  0  0  0  0  0  0  0  0
  100.4090    1.7920   -5.1120   C 0  0  0  0  0  0  0  0  0  0  0  0
   96.3170    8.4230   -6.6740   C 0  0  0  0  0  0  0  0  0  0  0  0
  101.4740    4.5390  -14.9350   C 0  0  0  0  0  0  0  0  0  0  0  0
  103.4370    3.0170  -10.9760   C 0  0  0  0  0  0  0  0  0  0  0  0
  101.4050    8.0070  -15.6830   O 0  0  0  0  0  0  0  0  0  0  0  0
  102.0430    3.3820  -11.4850   C 0  0  0  0  0  0  0  0  0  0  0  0
  102.1770    4.0490  -12.6970   C 0  0  0  0  0  0  0  0  0  0  0  0
  104.1320   11.2160   -8.2290   C 0  0  0  0  0  0  0  0  0  0  0  0
  101.1010    4.0930   -6.6350   C 0  0  0  0  0  0  0  0  0  0  0  0
  103.0170    7.4640  -13.3430   C 0  0  0  0  0  0  0  0  0  0  0  0
  100.5030    3.6570   -9.8590   O 0  0  0  0  0  0  0  0  0  0  0  0
   98.3500    6.5650  -18.6680   C 0  0  0  0  0  0  0  0  0  0  0  0
   98.4760   10.1100   -9.9410   C 0  0  0  0  0  0  0  0  0  0  0  0
   97.0510    6.5940   -5.1660   C 0  0  0  0  0  0  0  0  0  0  0  0
  101.6820    6.0190  -14.6400   C 0  0  0  0  0  0  0  0  0  0  0  0
  101.8970    2.8240   -6.8950   C 0  0  0  0  0  0  0  0  0  0  0  0
  101.8210    6.2580  -17.0550   C 0  0  0  0  0  0  0  0  0  0  0  0
  100.2540    5.3360   -8.3490   O 0  0  0  0  0  0  0  0  0  0  0  0
  100.3090    4.3670  -15.7530   O 0  0  0  0  0  0  0  0  0  0  0  0
  102.9640    8.1530  -10.2290   C 0  0  0  0  0  0  0  0  0  0  0  0
   98.9570    7.2100  -16.4590   C 0  0  0  0  0  0  0  0  0  0  0  0
  101.3780    4.1710  -10.5540   C 0  0  0  0  0  0  0  0  0  0  0  0
  103.8360    9.3340   -9.8320   C 0  0  0  0  0  0  0  0  0  0  0  0
  106.1170    9.9940   -9.1110   C 0  0  0  0  0  0  0  0  0  0  0  0
  101.7990    1.8450   -5.7360   C 0  0  0  0  0  0  0  0  0  0  0  0
  102.6370    7.3020   -8.9990   C 0  0  0  0  0  0  0  0  0  0  0  0
   96.6140    6.1930   -7.5200   O 0  0  0  0  0  0  0  0  0  0  0  0
  105.2260    8.8220   -9.4930   C 0  0  0  0  0  0  0  0  0  0  0  0
   98.1490    6.9780  -12.8710   C 0  0  0  0  0  0  0  0  0  0  0  0
  101.2650    7.7280   -8.4670   C 0  0  0  0  0  0  0  0  0  0  0  0
   98.7450    6.6780  -15.1910   C 0  0  0  0  0  0  0  0  0  0  0  0
  100.7390    6.7510  -18.0060   C 0  0  0  0  0  0  0  0  0  0  0  0
  103.5950   11.8890   -7.0810   O 0  0  0  0  0  0  0  0  0  0  0  0
   96.5630    5.6010   -6.2120   C 0  0  0  0  0  0  0  0  0  0  0  0
   98.3590    7.5040  -14.1400   C 0  0  0  0  0  0  0  0  0  0  0  0
   95.7500    7.8690   -9.0450   C 0  0  0  0  0  0  0  0  0  0  0  0
  103.2490   10.0390   -8.6170   C 0  0  0  0  0  0  0  0  0  0  0  0
   97.1520    8.2100   -9.5330   C 0  0  0  0  0  0  0  0  0  0  0  0
   99.3430    2.3580   -6.0390   C 0  0  0  0  0  0  0  0  0  0  0  0
  102.6520    5.8310   -9.3880   C 0  0  0  0  0  0  0  0  0  0  0  0
  101.6260    6.8010  -15.7900   C 0  0  0  0  0  0  0  0  0  0  0  0
   97.7610    7.8140  -11.8280   C 0  0  0  0  0  0  0  0  0  0  0  0
 31 17  1  0  0  0  0
 45 19  1  0  0  0  0
 46 60  1  0  0  0  0
 65 52  1  0  0  0  0
 12  8  2  0  0  0  0
 49 53  1  0  0  0  0
 59 61  1  0  0  0  0
 62 18  1  0  0  0  0
 44  1  1  0  0  0  0
 61  9  1  0  0  0  0
 55 40  1  0  0  0  0
 32 18  1  0  0  0  0
 61  3  1  0  0  0  0
 54 44  2  0  0  0  0
 24 62  1  0  0  0  0
 30 29  1  0  0  0  0
 48 24  1  0  0  0  0
 45 34  2  0  0  0  0
 10 59  1  0  0  0  0
 37 20  1  0  0  0  0
 52 58  2  0  0  0  0
 12 57  1  0  0  0  0
 64 28  2  0  0  0  0
 56 16  1  0  0  0  0
 17 47  1  0  0  0  0
 57 50  1  0  0  0  0
 38 11  1  0  0  0  0
 57 37  1  0  0  0  0
 29 45  1  0  0  0  0
  3 23  1  0  0  0  0
  1 55  1  0  0  0  0
 46 51  1  0  0  0  0
 18  7  1  0  0  0  0
  3 65  2  0  0  0  0
  5 32  1  0  0  0  0
 63 49  1  0  0  0  0
  1 35  1  0  0  0  0
  5 41  2  0  0  0  0
 26 42  1  0  0  0  0
 60 31  1  0  0  0  0
 39 48  1  0  0  0  0
  9 36  1  0  0  0  0
 47 51  1  0  0  0  0
 37 21  1  0  0  0  0
 19 63  1  0  0  0  0
 13 30  2  0  0  0  0
 50 10  1  0  0  0  0
 32 39  1  0  0  0  0
 57 14  1  0  0  0  0
 31 56  1  0  0  0  0
 25 10  1  0  0  0  0
 26 13  1  0  0  0  0
 40 22  1  0  0  0  0
 11 33  1  0  0  0  0
 21 25  1  0  0  0  0
 17 15  1  0  0  0  0
 49 43  1  0  0  0  0
 40 64  1  0  0  0  0
 29 27  1  0  0  0  0
  6 63  1  0  0  0  0
  7  4  2  0  0  0  0
 64 38  1  0  0  0  0
  7 12  1  0  0  0  0
 13  2  1  0  0  0  0
 58 54  1  0  0  0  0
  5  6  1  0  0  0  0
 38 26  1  0  0  0  0
 43 46  1  0  0  0  0
A    1
C23
A    2
C47
A    3
C17
A    4
O3
A    5
C1
A    6
O1
A    7
C8
A    8
O4
A    9
O7
A   10
C14
A   11
O9
A   12
C9
A   13
C29
A   14
O6
A   15
O13
A   16
C52
A   17
C40
A   18
N7
A   19
C33
A   20
C43
A   21
C12
A   22
C46
A   23
C44
A   24
C5
A   25
C13
A   26
C28
A   27
C48
A   28
O8
A   29
C31
A   30
C30
A   31
C39
A   32
C2
A   33
C51
A   34
O11
A   35
C45
A   36
C50
A   37
C11
A   38
C27
A   39
C3
A   40
C25
A   41
O2
A   42
O10
A   43
C36
A   44
C22
A   45
C32
A   46
C37
A   47
C41
A   48
C4
A   49
C35
A   50
O5
A   51
C42
A   52
C19
A   53
C49
A   54
C21
A   55
C24
A   56
O12
A   57
C10
A   58
C20
A   59
C15
A   60
C38
A   61
C16
A   62
C6
A   63
C34
A   64
C26
A   65
C18
M  END
>  <InstanceId>
2VCD_RAP_A_138

>  <ChemCompId>
RAP

>  <PdbId>
2VCD

>  <ChainId>
A

>  <ResidueNumber>
138

>  <InsertionCode>


>  <Model>
1

>  <AltIds>


>  <MissingHeavyAtoms>
0

>  <ObservedFormula>
C51 N O13

>  <AsymId>
B

>  <SeqNum>
138

>  <Name>
RAPAMYCIN IMMUNOSUPPRESSANT DRUG

>  <SystematicName>
null

>  <Synonyms>


>  <Type>
NON-POLYMER

>  <Formula>
C51 H79 N O13

>  <MolecularWeight>
914.172

>  <ModifiedDate>
2011-06-04

>  <Parent>


>  <OneLetterCode>


>  <SubcomponentList>


>  <AmbiguousFlag>
N

>  <InChI>
null

>  <InChIKey>
null

>  <SMILES>
C[C@@H]1CC[C@H]2C[C@@H](C(=CC=C\C=C\[C@H](C[C@H](C(=O)[C@@H]([C@@H](/C(=C/[C@H](C(=O)C[C@H](OC(=O)[C@@H]3CCCCN3C(=O)C(=O)[C@@]1(O2)O)[C@H](C)C[C@@H]4CC[C@H]([C@@H](C4)OC)O)C)/C)O)OC)C)C)C)OC

$$$$
