3KZ7_RAP_A_225
  RCSB PDB07141709183D
Coordinates from PDB:3KZ7:A:225 Model:1 without hydrogens
 65 68  0  0  0  0            999 V2000
   17.4390   23.2790   27.5580   C 0  0  0  0  0  0  0  0  0  0  0  0
   10.4280   19.7330   27.1080   O 0  0  0  0  0  0  0  0  0  0  0  0
   15.7710   26.9000   22.1820   C 0  0  0  0  0  0  0  0  0  0  0  0
   17.1930   27.3490   22.2820   C 0  0  0  0  0  0  0  0  0  0  0  0
   24.9610   24.2490   24.0870   C 0  0  0  0  0  0  0  0  0  0  0  0
   20.8870   24.7530   26.6660   C 0  0  0  0  0  0  0  0  0  0  0  0
   20.7190   17.2710   21.9770   C 0  0  0  0  0  0  0  0  0  0  0  0
   11.9620   21.5130   26.8910   C 0  0  0  0  0  0  0  0  0  0  0  0
   15.7590   15.7300   24.2610   O 0  0  0  0  0  0  0  0  0  0  0  0
   14.1290   19.6560   27.1070   C 0  0  0  0  0  0  0  0  0  0  0  0
   21.3690   24.8050   24.2000   C 0  0  0  0  0  0  0  0  0  0  0  0
   14.3900   21.0870   26.6920   C 0  0  0  0  0  0  0  0  0  0  0  0
   16.9360   20.1340   22.8380   C 0  0  0  0  0  0  0  0  0  0  0  0
   23.6870   24.7610   23.8010   O 0  0  0  0  0  0  0  0  0  0  0  0
   21.2810   25.6130   25.4890   C 0  0  0  0  0  0  0  0  0  0  0  0
   20.6390   25.6140   27.8840   C 0  0  0  0  0  0  0  0  0  0  0  0
   15.9440   18.1100   23.8090   C 0  0  0  0  0  0  0  0  0  0  0  0
   16.6410   16.4120   22.1880   C 0  0  0  0  0  0  0  0  0  0  0  0
   18.2630   18.8980   24.4710   C 0  0  0  0  0  0  0  0  0  0  0  0
   17.5740   22.4460   23.2320   C 0  0  0  0  0  0  0  0  0  0  0  0
   15.0170   27.3430   23.3980   C 0  0  0  0  0  0  0  0  0  0  0  0
   18.2510   21.3610   21.1750   C 0  0  0  0  0  0  0  0  0  0  0  0
   16.5150   16.7140   23.6360   C 0  0  0  0  0  0  0  0  0  0  0  0
   17.2050   23.3320   22.5410   O 0  0  0  0  0  0  0  0  0  0  0  0
   15.7970   21.4920   27.0830   C 0  0  0  0  0  0  0  0  0  0  0  0
   17.6310   22.6070   24.7270   C 0  0  0  0  0  0  0  0  0  0  0  0
   17.8310   27.0570   23.6170   C 0  0  0  0  0  0  0  0  0  0  0  0
   17.8830   16.8230   21.4940   C 0  0  0  0  0  0  0  0  0  0  0  0
   12.7470   19.2160   26.7060   C 0  0  0  0  0  0  0  0  0  0  0  0
   19.3070   27.5450   28.7750   C 0  0  0  0  0  0  0  0  0  0  0  0
   20.2700   16.1340   21.1090   C 0  0  0  0  0  0  0  0  0  0  0  0
   17.0530   19.0850   23.6360   C 0  0  0  0  0  0  0  0  0  0  0  0
   16.1940   22.9180   26.7890   C 0  0  0  0  0  0  0  0  0  0  0  0
   18.9010   15.7150   21.5690   C 0  0  0  0  0  0  0  0  0  0  0  0
   21.2470   18.3900   21.5380   C 0  0  0  0  0  0  0  0  0  0  0  0
   17.4890   27.9020   25.8420   C 0  0  0  0  0  0  0  0  0  0  0  0
   14.9370   18.3580   22.8820   O 0  0  0  0  0  0  0  0  0  0  0  0
   21.1600   14.9080   21.2010   C 0  0  0  0  0  0  0  0  0  0  0  0
   18.8670   28.3420   25.8600   C 0  0  0  0  0  0  0  0  0  0  0  0
   11.7450   20.1200   27.3860   C 0  0  0  0  0  0  0  0  0  0  0  0
   15.7770   15.8810   21.5920   O 0  0  0  0  0  0  0  0  0  0  0  0
   20.0060   27.4880   26.3470   C 0  0  0  0  0  0  0  0  0  0  0  0
   16.8320   28.0700   26.8020   O 0  0  0  0  0  0  0  0  0  0  0  0
   13.3390   21.9820   27.2930   C 0  0  0  0  0  0  0  0  0  0  0  0
   17.6010   17.1770   20.0570   C 0  0  0  0  0  0  0  0  0  0  0  0
   19.1540   29.3850   25.4280   O 0  0  0  0  0  0  0  0  0  0  0  0
   20.2840   26.5920   25.3040   O 0  0  0  0  0  0  0  0  0  0  0  0
   21.8910   20.7010   22.0880   C 0  0  0  0  0  0  0  0  0  0  0  0
   18.0220   21.1410   22.6520   C 0  0  0  0  0  0  0  0  0  0  0  0
   16.3740   23.2180   25.3070   C 0  0  0  0  0  0  0  0  0  0  0  0
   15.4210   25.4080   24.8900   C 0  0  0  0  0  0  0  0  0  0  0  0
   22.5880   23.9200   24.0340   C 0  0  0  0  0  0  0  0  0  0  0  0
   22.3440   22.9900   22.8930   C 0  0  0  0  0  0  0  0  0  0  0  0
   22.1600   21.7020   23.0950   C 0  0  0  0  0  0  0  0  0  0  0  0
   22.3100   23.5410   21.5300   C 0  0  0  0  0  0  0  0  0  0  0  0
   15.6270   26.8840   24.7110   C 0  0  0  0  0  0  0  0  0  0  0  0
   16.5780   24.5990   25.1050   O 0  0  0  0  0  0  0  0  0  0  0  0
   17.0200   27.3290   24.7650   N 0  0  0  0  0  0  0  0  0  0  0  0
   12.5450   17.9130   27.1420   O 0  0  0  0  0  0  0  0  0  0  0  0
   21.1020   28.3270   26.6200   O 0  0  0  0  0  0  0  0  0  0  0  0
   12.7460   16.9820   26.1180   C 0  0  0  0  0  0  0  0  0  0  0  0
   21.5770   19.4700   22.4420   C 0  0  0  0  0  0  0  0  0  0  0  0
   19.6050   26.6790   27.5750   C 0  0  0  0  0  0  0  0  0  0  0  0
   14.5830   15.5710   23.5950   C 0  0  0  0  0  0  0  0  0  0  0  0
   14.3450   24.9100   24.8930   O 0  0  0  0  0  0  0  0  0  0  0  0
 62 35  1  0  0  0  0
  7 31  1  0  0  0  0
 33 25  1  0  0  0  0
 32 13  2  0  0  0  0
 31 38  1  0  0  0  0
 12 10  1  0  0  0  0
 53 55  1  0  0  0  0
 20 24  2  0  0  0  0
 27 58  1  0  0  0  0
 49 22  1  0  0  0  0
 18 23  1  0  0  0  0
  9 64  1  0  0  0  0
 63 16  1  0  0  0  0
  6 15  1  0  0  0  0
 17 32  1  0  0  0  0
 25 12  1  0  0  0  0
 50 33  1  0  0  0  0
 53 54  2  0  0  0  0
 39 46  2  0  0  0  0
 47 15  1  0  0  0  0
 58 36  1  0  0  0  0
 63 30  1  0  0  0  0
 40  2  1  0  0  0  0
 56 58  1  0  0  0  0
 23  9  1  0  0  0  0
 36 39  1  0  0  0  0
 42 63  1  0  0  0  0
 40  8  1  0  0  0  0
 15 11  1  0  0  0  0
 12 44  1  0  0  0  0
 20 26  1  0  0  0  0
 14  5  1  0  0  0  0
 11 52  1  0  0  0  0
 48 62  2  0  0  0  0
 26 50  1  0  0  0  0
 13 49  1  0  0  0  0
 36 43  2  0  0  0  0
 28 18  1  0  0  0  0
 59 61  1  0  0  0  0
 52 14  1  0  0  0  0
 39 42  1  0  0  0  0
  8 44  1  0  0  0  0
 34 28  1  0  0  0  0
 31 34  1  0  0  0  0
 56 21  1  0  0  0  0
 32 19  1  0  0  0  0
 52 53  1  0  0  0  0
 23 17  1  0  0  0  0
 29 40  1  0  0  0  0
 49 20  1  0  0  0  0
 33  1  1  0  0  0  0
 42 60  1  0  0  0  0
 54 48  1  0  0  0  0
 18 41  2  0  0  0  0
 51 56  1  0  0  0  0
  3  4  1  0  0  0  0
 29 59  1  0  0  0  0
 16  6  1  0  0  0  0
 28 45  1  0  0  0  0
 21  3  1  0  0  0  0
 42 47  1  0  0  0  0
 17 37  1  0  0  0  0
 51 57  1  0  0  0  0
  4 27  1  0  0  0  0
 10 29  1  0  0  0  0
 51 65  2  0  0  0  0
 35  7  2  0  0  0  0
 57 50  1  0  0  0  0
A    1
C49
A    2
O13
A    3
C4
A    4
C5
A    5
C50
A    6
C13
A    7
C22
A    8
C41
A    9
O9
A   10
C38
A   11
C15
A   12
C37
A   13
C30
A   14
O7
A   15
C14
A   16
C12
A   17
C28
A   18
C26
A   19
C47
A   20
C32
A   21
C3
A   22
C48
A   23
C27
A   24
O11
A   25
C36
A   26
C33
A   27
C6
A   28
C25
A   29
C39
A   30
C43
A   31
C23
A   32
C29
A   33
C35
A   34
C24
A   35
C21
A   36
C8
A   37
O10
A   38
C45
A   39
C9
A   40
C40
A   41
O8
A   42
C10
A   43
O3
A   44
C42
A   45
C46
A   46
O4
A   47
O5
A   48
C19
A   49
C31
A   50
C34
A   51
C1
A   52
C16
A   53
C17
A   54
C18
A   55
C44
A   56
C2
A   57
O1
A   58
N7
A   59
O12
A   60
O6
A   61
C52
A   62
C20
A   63
C11
A   64
C51
A   65
O2
M  END
>  <InstanceId>
3KZ7_RAP

>  <ChemCompId>
RAP

>  <PdbId>
3KZ7

>  <ChainId>
A

>  <ResidueNumber>
225

>  <InsertionCode>
null

>  <Model>
1

>  <AltIds>


>  <MissingHeavyAtoms>
0

>  <ObservedFormula>
C51 N O13

>  <AsymId>
B

>  <SeqNum>
225

>  <Name>
RAPAMYCIN IMMUNOSUPPRESSANT DRUG

>  <SystematicName>
null

>  <Synonyms>


>  <Type>
NON-POLYMER

>  <Formula>
C51 H79 N O13

>  <MolecularWeight>
914.172

>  <ModifiedDate>
2011-06-04

>  <Parent>


>  <OneLetterCode>


>  <SubcomponentList>


>  <AmbiguousFlag>
N

>  <InChI>
InChI=1S/C51H79NO13/c1-30-16-12-11-13-17-31(2)42(61-8)28-38-21-19-36(7)51(60,65-38)48(57)49(58)52-23-15-14-18-39(52)50(59)64-43(33(4)26-37-20-22-40(53)44(27-37)62-9)29-41(54)32(3)25-35(6)46(56)47(63-10)45(55)34(5)24-30/h11-13,16-17,25,30,32-34,36-40,42-44,46-47,53,56,60H,14-15,18-24,26-29H2,1-10H3/b13-11+,16-12+,31-17+,35-25+/t30-,32-,33-,34-,36-,37+,38+,39+,40-,42+,43+,44-,46-,47+,51-/m1/s1

>  <InChIKey>
QFJCIRLUMZQUOT-HPLJOQBZSA-N

>  <SMILES>
C[C@@H]1CC[C@H]2C[C@@H](C(=CC=C\C=C\[C@H](C[C@H](C(=O)[C@@H]([C@@H](/C(=C/[C@H](C(=O)C[C@H](OC(=O)[C@@H]3CCCCN3C(=O)C(=O)[C@@]1(O2)O)[C@H](C)C[C@@H]4CC[C@H]([C@@H](C4)OC)O)C)/C)O)OC)C)C)C)OC

$$$$
