4DRH_RAP_A_201
  RCSB PDB07141709183D
Coordinates from PDB:4DRH:A:201 Model:1 without hydrogens
 65 68  0  0  0  0            999 V2000
   -4.9830   17.5760   -4.1260   C 0  0  0  0  0  0  0  0  0  0  0  0
   -4.8120   24.2860   -8.5170   O 0  0  0  0  0  0  0  0  0  0  0  0
  -10.6630   20.1210   -1.3640   C 0  0  0  0  0  0  0  0  0  0  0  0
  -10.3890   18.9720   -0.3860   C 0  0  0  0  0  0  0  0  0  0  0  0
   -4.0410   15.1670    3.8120   C 0  0  0  0  0  0  0  0  0  0  0  0
   -5.2250   15.2440   -0.8250   C 0  0  0  0  0  0  0  0  0  0  0  0
   -0.1600   22.0930    1.4990   C 0  0  0  0  0  0  0  0  0  0  0  0
   -5.9160   22.4390   -7.3910   C 0  0  0  0  0  0  0  0  0  0  0  0
   -0.4390   24.6500   -3.7040   O 0  0  0  0  0  0  0  0  0  0  0  0
   -3.2760   21.6720   -6.3080   C 0  0  0  0  0  0  0  0  0  0  0  0
   -6.0720   16.6430    1.1220   C 0  0  0  0  0  0  0  0  0  0  0  0
   -4.5620   21.1590   -5.6270   C 0  0  0  0  0  0  0  0  0  0  0  0
   -3.9430   22.5530   -1.3630   C 0  0  0  0  0  0  0  0  0  0  0  0
   -5.2160   15.6030    3.1330   O 0  0  0  0  0  0  0  0  0  0  0  0
   -6.2890   15.4050    0.2610   C 0  0  0  0  0  0  0  0  0  0  0  0
   -5.6640   14.2450   -1.9000   C 0  0  0  0  0  0  0  0  0  0  0  0
   -2.3040   23.4310   -2.9920   C 0  0  0  0  0  0  0  0  0  0  0  0
   -1.1600   25.0640   -1.3980   C 0  0  0  0  0  0  0  0  0  0  0  0
   -1.8850   21.1740   -1.7520   C 0  0  0  0  0  0  0  0  0  0  0  0
   -5.6050   20.7980   -1.0610   C 0  0  0  0  0  0  0  0  0  0  0  0
  -10.8930   19.6030   -2.7920   C 0  0  0  0  0  0  0  0  0  0  0  0
   -4.9810   22.2990    0.8980   C 0  0  0  0  0  0  0  0  0  0  0  0
   -1.0050   24.0650   -2.5320   C 0  0  0  0  0  0  0  0  0  0  0  0
   -6.7760   21.0950   -0.9360   O 0  0  0  0  0  0  0  0  0  0  0  0
   -4.2410   19.7740   -5.0490   C 0  0  0  0  0  0  0  0  0  0  0  0
   -5.2240   19.6750   -1.9910   C 0  0  0  0  0  0  0  0  0  0  0  0
   -9.2250   18.1170   -0.9080   C 0  0  0  0  0  0  0  0  0  0  0  0
   -1.2560   24.6020    0.0460   C 0  0  0  0  0  0  0  0  0  0  0  0
   -3.4840   23.0710   -6.9000   C 0  0  0  0  0  0  0  0  0  0  0  0
   -7.5120   13.5340   -3.4920   C 0  0  0  0  0  0  0  0  0  0  0  0
    0.3010   23.5050    1.8020   C 0  0  0  0  0  0  0  0  0  0  0  0
   -2.7670   22.3780   -2.0130   C 0  0  0  0  0  0  0  0  0  0  0  0
   -5.4190   19.0020   -4.4750   C 0  0  0  0  0  0  0  0  0  0  0  0
    0.1750   24.4460    0.5860   C 0  0  0  0  0  0  0  0  0  0  0  0
   -1.2100   21.5390    2.1160   C 0  0  0  0  0  0  0  0  0  0  0  0
   -9.5690   16.3520   -2.7000   C 0  0  0  0  0  0  0  0  0  0  0  0
   -3.2610   24.4760   -3.2190   O 0  0  0  0  0  0  0  0  0  0  0  0
    1.7740   23.4680    2.2000   C 0  0  0  0  0  0  0  0  0  0  0  0
   -9.4190   15.2560   -1.7460   C 0  0  0  0  0  0  0  0  0  0  0  0
   -4.5950   22.9950   -7.9470   C 0  0  0  0  0  0  0  0  0  0  0  0
   -1.1440   26.2580   -1.6390   O 0  0  0  0  0  0  0  0  0  0  0  0
   -8.0610   14.7130   -1.3170   C 0  0  0  0  0  0  0  0  0  0  0  0
   -9.7460   16.0280   -3.8540   O 0  0  0  0  0  0  0  0  0  0  0  0
   -5.7360   21.1360   -6.6160   C 0  0  0  0  0  0  0  0  0  0  0  0
   -2.0890   25.5630    0.9020   C 0  0  0  0  0  0  0  0  0  0  0  0
  -10.4370   14.7630   -1.3140   O 0  0  0  0  0  0  0  0  0  0  0  0
   -7.5650   15.6430   -0.3440   O 0  0  0  0  0  0  0  0  0  0  0  0
   -2.8420   19.7610    2.2990   C 0  0  0  0  0  0  0  0  0  0  0  0
   -4.5060   21.5640   -0.3540   C 0  0  0  0  0  0  0  0  0  0  0  0
   -6.0680   19.7080   -3.2740   C 0  0  0  0  0  0  0  0  0  0  0  0
   -8.4830   19.4800   -3.5420   C 0  0  0  0  0  0  0  0  0  0  0  0
   -4.8830   16.4950    2.0630   C 0  0  0  0  0  0  0  0  0  0  0  0
   -4.5060   17.8880    2.5110   C 0  0  0  0  0  0  0  0  0  0  0  0
   -3.3540   18.4190    2.0000   C 0  0  0  0  0  0  0  0  0  0  0  0
   -5.4530   18.6350    3.4550   C 0  0  0  0  0  0  0  0  0  0  0  0
   -9.7510   18.7060   -3.2840   C 0  0  0  0  0  0  0  0  0  0  0  0
   -7.2470   19.0030   -2.9400   O 0  0  0  0  0  0  0  0  0  0  0  0
   -9.5220   17.6300   -2.2860   N 0  0  0  0  0  0  0  0  0  0  0  0
   -2.2970   23.5090   -7.5620   O 0  0  0  0  0  0  0  0  0  0  0  0
   -8.2440   13.4050   -0.7640   O 0  0  0  0  0  0  0  0  0  0  0  0
   -1.3550   24.2120   -6.7590   C 0  0  0  0  0  0  0  0  0  0  0  0
   -1.6690   20.1810    1.8060   C 0  0  0  0  0  0  0  0  0  0  0  0
   -7.0490   14.5840   -2.4690   C 0  0  0  0  0  0  0  0  0  0  0  0
    0.9600   24.9430   -3.6410   C 0  0  0  0  0  0  0  0  0  0  0  0
   -8.4630   20.4750   -4.2500   O 0  0  0  0  0  0  0  0  0  0  0  0
 62 35  1  0  0  0  0
  7 31  1  0  0  0  0
 33 25  1  0  0  0  0
 32 13  2  0  0  0  0
 31 38  1  0  0  0  0
 12 10  1  0  0  0  0
 53 55  1  0  0  0  0
 20 24  2  0  0  0  0
 27 58  1  0  0  0  0
 49 22  1  0  0  0  0
 18 23  1  0  0  0  0
  9 64  1  0  0  0  0
 63 16  1  0  0  0  0
  6 15  1  0  0  0  0
 17 32  1  0  0  0  0
 25 12  1  0  0  0  0
 50 33  1  0  0  0  0
 53 54  2  0  0  0  0
 39 46  2  0  0  0  0
 47 15  1  0  0  0  0
 58 36  1  0  0  0  0
 63 30  1  0  0  0  0
 40  2  1  0  0  0  0
 56 58  1  0  0  0  0
 23  9  1  0  0  0  0
 36 39  1  0  0  0  0
 42 63  1  0  0  0  0
 40  8  1  0  0  0  0
 15 11  1  0  0  0  0
 12 44  1  0  0  0  0
 20 26  1  0  0  0  0
 14  5  1  0  0  0  0
 11 52  1  0  0  0  0
 48 62  2  0  0  0  0
 26 50  1  0  0  0  0
 13 49  1  0  0  0  0
 36 43  2  0  0  0  0
 28 18  1  0  0  0  0
 59 61  1  0  0  0  0
 52 14  1  0  0  0  0
 39 42  1  0  0  0  0
  8 44  1  0  0  0  0
 34 28  1  0  0  0  0
 31 34  1  0  0  0  0
 56 21  1  0  0  0  0
 32 19  1  0  0  0  0
 52 53  1  0  0  0  0
 23 17  1  0  0  0  0
 29 40  1  0  0  0  0
 49 20  1  0  0  0  0
 33  1  1  0  0  0  0
 42 60  1  0  0  0  0
 54 48  1  0  0  0  0
 18 41  2  0  0  0  0
 51 56  1  0  0  0  0
  3  4  1  0  0  0  0
 29 59  1  0  0  0  0
 16  6  1  0  0  0  0
 28 45  1  0  0  0  0
 21  3  1  0  0  0  0
 42 47  1  0  0  0  0
 17 37  1  0  0  0  0
 51 57  1  0  0  0  0
  4 27  1  0  0  0  0
 10 29  1  0  0  0  0
 51 65  2  0  0  0  0
 35  7  2  0  0  0  0
 57 50  1  0  0  0  0
A    1
C49
A    2
O13
A    3
C4
A    4
C5
A    5
C50
A    6
C13
A    7
C22
A    8
C41
A    9
O9
A   10
C38
A   11
C15
A   12
C37
A   13
C30
A   14
O7
A   15
C14
A   16
C12
A   17
C28
A   18
C26
A   19
C47
A   20
C32
A   21
C3
A   22
C48
A   23
C27
A   24
O11
A   25
C36
A   26
C33
A   27
C6
A   28
C25
A   29
C39
A   30
C43
A   31
C23
A   32
C29
A   33
C35
A   34
C24
A   35
C21
A   36
C8
A   37
O10
A   38
C45
A   39
C9
A   40
C40
A   41
O8
A   42
C10
A   43
O3
A   44
C42
A   45
C46
A   46
O4
A   47
O5
A   48
C19
A   49
C31
A   50
C34
A   51
C1
A   52
C16
A   53
C17
A   54
C18
A   55
C44
A   56
C2
A   57
O1
A   58
N7
A   59
O12
A   60
O6
A   61
C52
A   62
C20
A   63
C11
A   64
C51
A   65
O2
M  END
>  <InstanceId>
4DRH_RAP

>  <ChemCompId>
RAP

>  <PdbId>
4DRH

>  <ChainId>
A

>  <ResidueNumber>
201

>  <InsertionCode>
null

>  <Model>
1

>  <AltIds>


>  <MissingHeavyAtoms>
0

>  <ObservedFormula>
C51 N O13

>  <AsymId>
E

>  <SeqNum>
201

>  <Name>
RAPAMYCIN IMMUNOSUPPRESSANT DRUG

>  <SystematicName>
null

>  <Synonyms>


>  <Type>
NON-POLYMER

>  <Formula>
C51 H79 N O13

>  <MolecularWeight>
914.172

>  <ModifiedDate>
2011-06-04

>  <Parent>


>  <OneLetterCode>


>  <SubcomponentList>


>  <AmbiguousFlag>
N

>  <InChI>
InChI=1S/C51H79NO13/c1-30-16-12-11-13-17-31(2)42(61-8)28-38-21-19-36(7)51(60,65-38)48(57)49(58)52-23-15-14-18-39(52)50(59)64-43(33(4)26-37-20-22-40(53)44(27-37)62-9)29-41(54)32(3)25-35(6)46(56)47(63-10)45(55)34(5)24-30/h11-13,16-17,25,30,32-34,36-40,42-44,46-47,53,56,60H,14-15,18-24,26-29H2,1-10H3/b13-11+,16-12+,31-17+,35-25+/t30-,32-,33-,34-,36-,37+,38+,39+,40-,42+,43+,44-,46-,47+,51-/m1/s1

>  <InChIKey>
QFJCIRLUMZQUOT-HPLJOQBZSA-N

>  <SMILES>
C[C@@H]1CC[C@H]2C[C@@H](C(=CC=C\C=C\[C@H](C[C@H](C(=O)[C@@H]([C@@H](/C(=C/[C@H](C(=O)C[C@H](OC(=O)[C@@H]3CCCCN3C(=O)C(=O)[C@@]1(O2)O)[C@H](C)C[C@@H]4CC[C@H]([C@@H](C4)OC)O)C)/C)O)OC)C)C)C)OC

$$$$
