4DRI_RAP_A_201
  RCSB PDB07141709183D
Coordinates from PDB:4DRI:A:201 Model:1 without hydrogens
 65 68  0  0  0  0            999 V2000
   36.3820   52.4840   38.0380   C 0  0  0  0  0  0  0  0  0  0  0  0
   28.4670   53.4660   36.8350   O 0  0  0  0  0  0  0  0  0  0  0  0
   37.1580   52.8120   31.3730   C 0  0  0  0  0  0  0  0  0  0  0  0
   38.5600   52.3690   31.6550   C 0  0  0  0  0  0  0  0  0  0  0  0
   41.6220   46.7820   37.8820   C 0  0  0  0  0  0  0  0  0  0  0  0
   40.0560   51.1500   38.0160   C 0  0  0  0  0  0  0  0  0  0  0  0
   34.1080   43.8840   36.9820   C 0  0  0  0  0  0  0  0  0  0  0  0
   30.8240   53.7720   36.3180   C 0  0  0  0  0  0  0  0  0  0  0  0
   29.4680   47.2050   37.5190   O 0  0  0  0  0  0  0  0  0  0  0  0
   31.5180   51.8580   38.4080   C 0  0  0  0  0  0  0  0  0  0  0  0
   39.9130   49.5350   36.1140   C 0  0  0  0  0  0  0  0  0  0  0  0
   32.5550   52.2660   37.3460   C 0  0  0  0  0  0  0  0  0  0  0  0
   33.4760   48.1680   35.3000   C 0  0  0  0  0  0  0  0  0  0  0  0
   41.3950   47.9000   37.0020   O 0  0  0  0  0  0  0  0  0  0  0  0
   40.6810   50.7150   36.6960   C 0  0  0  0  0  0  0  0  0  0  0  0
   40.5460   52.5400   38.4430   C 0  0  0  0  0  0  0  0  0  0  0  0
   31.4030   48.1280   36.6480   C 0  0  0  0  0  0  0  0  0  0  0  0
   30.5690   45.8800   35.8620   C 0  0  0  0  0  0  0  0  0  0  0  0
   33.6540   47.7540   37.7570   C 0  0  0  0  0  0  0  0  0  0  0  0
   35.3480   49.5740   34.7390   C 0  0  0  0  0  0  0  0  0  0  0  0
   36.9380   54.1750   31.9920   C 0  0  0  0  0  0  0  0  0  0  0  0
   35.1970   47.2650   33.7130   C 0  0  0  0  0  0  0  0  0  0  0  0
   30.7300   46.8100   37.0220   C 0  0  0  0  0  0  0  0  0  0  0  0
   35.4410   50.0640   33.6200   O 0  0  0  0  0  0  0  0  0  0  0  0
   33.9490   52.1370   37.9990   C 0  0  0  0  0  0  0  0  0  0  0  0
   35.6550   50.4350   35.9630   C 0  0  0  0  0  0  0  0  0  0  0  0
   38.7880   52.3010   33.1880   C 0  0  0  0  0  0  0  0  0  0  0  0
   31.7510   45.0460   35.4390   C 0  0  0  0  0  0  0  0  0  0  0  0
   30.0920   51.9500   37.8720   C 0  0  0  0  0  0  0  0  0  0  0  0
   40.9530   54.9120   37.7020   C 0  0  0  0  0  0  0  0  0  0  0  0
   33.0580   42.9930   36.3650   C 0  0  0  0  0  0  0  0  0  0  0  0
   32.8830   48.0140   36.4890   C 0  0  0  0  0  0  0  0  0  0  0  0
   35.1280   52.6070   37.1410   C 0  0  0  0  0  0  0  0  0  0  0  0
   31.7270   43.7700   36.2730   C 0  0  0  0  0  0  0  0  0  0  0  0
   35.2390   44.2230   36.3710   C 0  0  0  0  0  0  0  0  0  0  0  0
   39.3400   54.3580   34.5460   C 0  0  0  0  0  0  0  0  0  0  0  0
   30.7440   48.6200   35.4780   O 0  0  0  0  0  0  0  0  0  0  0  0
   32.8570   41.7440   37.2220   C 0  0  0  0  0  0  0  0  0  0  0  0
   40.6910   53.8350   34.7780   C 0  0  0  0  0  0  0  0  0  0  0  0
   29.8000   53.3680   37.3900   C 0  0  0  0  0  0  0  0  0  0  0  0
   29.5000   45.7890   35.2890   O 0  0  0  0  0  0  0  0  0  0  0  0
   41.0170   53.0020   36.0110   C 0  0  0  0  0  0  0  0  0  0  0  0
   39.0950   55.4260   35.0510   O 0  0  0  0  0  0  0  0  0  0  0  0
   32.2460   53.6820   36.8550   C 0  0  0  0  0  0  0  0  0  0  0  0
   31.7690   44.7630   33.9270   C 0  0  0  0  0  0  0  0  0  0  0  0
   41.5620   54.0930   33.9350   O 0  0  0  0  0  0  0  0  0  0  0  0
   40.4770   51.7210   35.7100   O 0  0  0  0  0  0  0  0  0  0  0  0
   37.2040   45.6000   36.2910   C 0  0  0  0  0  0  0  0  0  0  0  0
   34.9450   48.1330   34.9620   C 0  0  0  0  0  0  0  0  0  0  0  0
   35.2710   51.9010   35.8170   C 0  0  0  0  0  0  0  0  0  0  0  0
   36.0000   53.5320   34.2020   C 0  0  0  0  0  0  0  0  0  0  0  0
   40.0180   48.2270   36.8860   C 0  0  0  0  0  0  0  0  0  0  0  0
   39.1950   47.1220   36.2020   C 0  0  0  0  0  0  0  0  0  0  0  0
   38.1340   46.6070   36.8520   C 0  0  0  0  0  0  0  0  0  0  0  0
   39.6720   46.5600   34.8750   C 0  0  0  0  0  0  0  0  0  0  0  0
   37.1780   54.1860   33.5150   C 0  0  0  0  0  0  0  0  0  0  0  0
   36.3490   52.4930   35.0800   O 0  0  0  0  0  0  0  0  0  0  0  0
   38.4970   53.6030   33.8010   N 0  0  0  0  0  0  0  0  0  0  0  0
   29.1460   51.6310   38.9240   O 0  0  0  0  0  0  0  0  0  0  0  0
   42.4330   52.9190   36.1340   O 0  0  0  0  0  0  0  0  0  0  0  0
   29.1320   50.2310   39.2810   C 0  0  0  0  0  0  0  0  0  0  0  0
   36.1820   45.1400   37.0200   C 0  0  0  0  0  0  0  0  0  0  0  0
   40.3840   53.5570   37.3060   C 0  0  0  0  0  0  0  0  0  0  0  0
   28.9280   46.2970   38.4700   C 0  0  0  0  0  0  0  0  0  0  0  0
   34.8740   53.8900   34.0440   O 0  0  0  0  0  0  0  0  0  0  0  0
 62 35  1  0  0  0  0
  7 31  1  0  0  0  0
 33 25  1  0  0  0  0
 32 13  2  0  0  0  0
 31 38  1  0  0  0  0
 12 10  1  0  0  0  0
 53 55  1  0  0  0  0
 20 24  2  0  0  0  0
 27 58  1  0  0  0  0
 49 22  1  0  0  0  0
 18 23  1  0  0  0  0
  9 64  1  0  0  0  0
 63 16  1  0  0  0  0
  6 15  1  0  0  0  0
 17 32  1  0  0  0  0
 25 12  1  0  0  0  0
 50 33  1  0  0  0  0
 53 54  2  0  0  0  0
 39 46  2  0  0  0  0
 47 15  1  0  0  0  0
 58 36  1  0  0  0  0
 63 30  1  0  0  0  0
 40  2  1  0  0  0  0
 56 58  1  0  0  0  0
 23  9  1  0  0  0  0
 36 39  1  0  0  0  0
 42 63  1  0  0  0  0
 40  8  1  0  0  0  0
 15 11  1  0  0  0  0
 12 44  1  0  0  0  0
 20 26  1  0  0  0  0
 14  5  1  0  0  0  0
 11 52  1  0  0  0  0
 48 62  2  0  0  0  0
 26 50  1  0  0  0  0
 13 49  1  0  0  0  0
 36 43  2  0  0  0  0
 28 18  1  0  0  0  0
 59 61  1  0  0  0  0
 52 14  1  0  0  0  0
 39 42  1  0  0  0  0
  8 44  1  0  0  0  0
 34 28  1  0  0  0  0
 31 34  1  0  0  0  0
 56 21  1  0  0  0  0
 32 19  1  0  0  0  0
 52 53  1  0  0  0  0
 23 17  1  0  0  0  0
 29 40  1  0  0  0  0
 49 20  1  0  0  0  0
 33  1  1  0  0  0  0
 42 60  1  0  0  0  0
 54 48  1  0  0  0  0
 18 41  2  0  0  0  0
 51 56  1  0  0  0  0
  3  4  1  0  0  0  0
 29 59  1  0  0  0  0
 16  6  1  0  0  0  0
 28 45  1  0  0  0  0
 21  3  1  0  0  0  0
 42 47  1  0  0  0  0
 17 37  1  0  0  0  0
 51 57  1  0  0  0  0
  4 27  1  0  0  0  0
 10 29  1  0  0  0  0
 51 65  2  0  0  0  0
 35  7  2  0  0  0  0
 57 50  1  0  0  0  0
A    1
C49
A    2
O13
A    3
C4
A    4
C5
A    5
C50
A    6
C13
A    7
C22
A    8
C41
A    9
O9
A   10
C38
A   11
C15
A   12
C37
A   13
C30
A   14
O7
A   15
C14
A   16
C12
A   17
C28
A   18
C26
A   19
C47
A   20
C32
A   21
C3
A   22
C48
A   23
C27
A   24
O11
A   25
C36
A   26
C33
A   27
C6
A   28
C25
A   29
C39
A   30
C43
A   31
C23
A   32
C29
A   33
C35
A   34
C24
A   35
C21
A   36
C8
A   37
O10
A   38
C45
A   39
C9
A   40
C40
A   41
O8
A   42
C10
A   43
O3
A   44
C42
A   45
C46
A   46
O4
A   47
O5
A   48
C19
A   49
C31
A   50
C34
A   51
C1
A   52
C16
A   53
C17
A   54
C18
A   55
C44
A   56
C2
A   57
O1
A   58
N7
A   59
O12
A   60
O6
A   61
C52
A   62
C20
A   63
C11
A   64
C51
A   65
O2
M  END
>  <InstanceId>
4DRI_RAP

>  <ChemCompId>
RAP

>  <PdbId>
4DRI

>  <ChainId>
A

>  <ResidueNumber>
201

>  <InsertionCode>
null

>  <Model>
1

>  <AltIds>


>  <MissingHeavyAtoms>
0

>  <ObservedFormula>
C51 N O13

>  <AsymId>
C

>  <SeqNum>
201

>  <Name>
RAPAMYCIN IMMUNOSUPPRESSANT DRUG

>  <SystematicName>
null

>  <Synonyms>


>  <Type>
NON-POLYMER

>  <Formula>
C51 H79 N O13

>  <MolecularWeight>
914.172

>  <ModifiedDate>
2011-06-04

>  <Parent>


>  <OneLetterCode>


>  <SubcomponentList>


>  <AmbiguousFlag>
N

>  <InChI>
InChI=1S/C51H79NO13/c1-30-16-12-11-13-17-31(2)42(61-8)28-38-21-19-36(7)51(60,65-38)48(57)49(58)52-23-15-14-18-39(52)50(59)64-43(33(4)26-37-20-22-40(53)44(27-37)62-9)29-41(54)32(3)25-35(6)46(56)47(63-10)45(55)34(5)24-30/h11-13,16-17,25,30,32-34,36-40,42-44,46-47,53,56,60H,14-15,18-24,26-29H2,1-10H3/b13-11+,16-12+,31-17+,35-25+/t30-,32-,33-,34-,36-,37+,38+,39+,40-,42+,43+,44-,46-,47+,51-/m1/s1

>  <InChIKey>
QFJCIRLUMZQUOT-HPLJOQBZSA-N

>  <SMILES>
C[C@@H]1CC[C@H]2C[C@@H](C(=CC=C\C=C\[C@H](C[C@H](C(=O)[C@@H]([C@@H](/C(=C/[C@H](C(=O)C[C@H](OC(=O)[C@@H]3CCCCN3C(=O)C(=O)[C@@]1(O2)O)[C@H](C)C[C@@H]4CC[C@H]([C@@H](C4)OC)O)C)/C)O)OC)C)C)C)OC

$$$$
