4QT2_RAP_A_202
  RCSB PDB05141717003D
Coordinates from PDB:4QT2:A:202 without hydrogens
 65 68  0  0  0  0            999 V2000
   -0.4650   25.9820   12.9300   C 0  0  0  0  0  0  0  0  0  0  0  0
    2.5140   23.5350   16.5700   C 0  0  0  0  0  0  0  0  0  0  0  0
   -2.4990   19.9150   16.7690   C 0  0  0  0  0  0  0  0  0  0  0  0
    3.8650   14.2670   18.4470   O 0  0  0  0  0  0  0  0  0  0  0  0
    4.6070   16.7480   15.9780   C 0  0  0  0  0  0  0  0  0  0  0  0
    3.7830   17.6570   16.6100   O 0  0  0  0  0  0  0  0  0  0  0  0
    2.8580   14.5600   17.8850   C 0  0  0  0  0  0  0  0  0  0  0  0
    1.0420   13.3820   18.3730   O 0  0  0  0  0  0  0  0  0  0  0  0
   -3.2000   18.4550   18.4510   O 0  0  0  0  0  0  0  0  0  0  0  0
   -0.5080   17.3260   18.8760   C 0  0  0  0  0  0  0  0  0  0  0  0
    5.0080   26.5540   14.7330   O 0  0  0  0  0  0  0  0  0  0  0  0
    1.5800   14.3500   18.5790   C 0  0  0  0  0  0  0  0  0  0  0  0
    3.0370   23.5350   15.1760   C 0  0  0  0  0  0  0  0  0  0  0  0
   -0.1610   14.6520   20.0640   O 0  0  0  0  0  0  0  0  0  0  0  0
   10.2740   22.2210   15.0320   O 0  0  0  0  0  0  0  0  0  0  0  0
    8.4820   25.0890   15.7710   C 0  0  0  0  0  0  0  0  0  0  0  0
    9.3880   21.8010   16.0660   C 0  0  0  0  0  0  0  0  0  0  0  0
    2.8930   15.1180   16.5910   N 0  0  0  0  0  0  0  0  0  0  0  0
    2.9480   19.9020   16.4300   C 0  0  0  0  0  0  0  0  0  0  0  0
    2.3450   15.0830   21.3180   C 0  0  0  0  0  0  0  0  0  0  0  0
    1.0870   17.3360   20.7970   C 0  0  0  0  0  0  0  0  0  0  0  0
    1.9820   24.5830   11.4730   C 0  0  0  0  0  0  0  0  0  0  0  0
   -3.0170   19.1880   15.5890   C 0  0  0  0  0  0  0  0  0  0  0  0
    1.7730   14.9440   14.4230   C 0  0  0  0  0  0  0  0  0  0  0  0
    0.4230   18.1320   19.7310   C 0  0  0  0  0  0  0  0  0  0  0  0
    4.3190   24.2770   14.9200   C 0  0  0  0  0  0  0  0  0  0  0  0
    0.9880   21.1250   13.3440   C 0  0  0  0  0  0  0  0  0  0  0  0
    4.0720   26.4340   12.3370   O 0  0  0  0  0  0  0  0  0  0  0  0
    1.9870   21.1840   14.4260   C 0  0  0  0  0  0  0  0  0  0  0  0
    2.9220   22.3510   14.3170   C 0  0  0  0  0  0  0  0  0  0  0  0
    8.2870   22.7960   16.1520   C 0  0  0  0  0  0  0  0  0  0  0  0
    4.2150   15.3130   16.0030   C 0  0  0  0  0  0  0  0  0  0  0  0
    5.2080   27.0550   16.0530   C 0  0  0  0  0  0  0  0  0  0  0  0
    2.6420   19.0380   14.2690   O 0  0  0  0  0  0  0  0  0  0  0  0
   -1.3820   27.2000   12.8910   C 0  0  0  0  0  0  0  0  0  0  0  0
   -4.1130   19.3510   19.0840   C 0  0  0  0  0  0  0  0  0  0  0  0
    1.5460   16.0130   20.3710   C 0  0  0  0  0  0  0  0  0  0  0  0
    4.0340   25.6440   14.4640   C 0  0  0  0  0  0  0  0  0  0  0  0
    4.2150   14.7740   14.5940   C 0  0  0  0  0  0  0  0  0  0  0  0
    2.0740   25.4420   12.6700   C 0  0  0  0  0  0  0  0  0  0  0  0
    5.6190   17.1370   15.4470   O 0  0  0  0  0  0  0  0  0  0  0  0
    5.0960   23.8140   13.8410   O 0  0  0  0  0  0  0  0  0  0  0  0
    5.5970   20.7530   17.9910   C 0  0  0  0  0  0  0  0  0  0  0  0
   -0.6500   25.1660   14.1560   C 0  0  0  0  0  0  0  0  0  0  0  0
    2.5150   19.9750   14.9960   C 0  0  0  0  0  0  0  0  0  0  0  0
    6.6400   21.0770   16.8900   C 0  0  0  0  0  0  0  0  0  0  0  0
    8.7680   20.4600   15.7300   C 0  0  0  0  0  0  0  0  0  0  0  0
    3.0480   15.2820   13.7810   C 0  0  0  0  0  0  0  0  0  0  0  0
    4.9440   19.3500   17.9430   C 0  0  0  0  0  0  0  0  0  0  0  0
    0.1470   16.1380   18.3700   O 0  0  0  0  0  0  0  0  0  0  0  0
    7.7320   20.0410   16.7860   C 0  0  0  0  0  0  0  0  0  0  0  0
   -1.9180   21.8710   15.2800   C 0  0  0  0  0  0  0  0  0  0  0  0
    4.0220   19.1990   19.1480   C 0  0  0  0  0  0  0  0  0  0  0  0
   -1.2940   23.9640   14.0660   C 0  0  0  0  0  0  0  0  0  0  0  0
    0.9850   26.4760   12.8890   C 0  0  0  0  0  0  0  0  0  0  0  0
    8.9180   24.0040   16.5350   O 0  0  0  0  0  0  0  0  0  0  0  0
    0.8560   15.3290   19.2770   C 0  0  0  0  0  0  0  0  0  0  0  0
   -1.3870   23.1180   15.2930   C 0  0  0  0  0  0  0  0  0  0  0  0
   -0.9690   18.0640   17.6300   C 0  0  0  0  0  0  0  0  0  0  0  0
    7.2460   22.4290   17.2000   C 0  0  0  0  0  0  0  0  0  0  0  0
   -2.0590   19.0920   17.9440   C 0  0  0  0  0  0  0  0  0  0  0  0
    1.7070   15.5300   15.8120   C 0  0  0  0  0  0  0  0  0  0  0  0
    4.1950   19.0240   16.6270   C 0  0  0  0  0  0  0  0  0  0  0  0
    3.4010   25.8470   13.1520   C 0  0  0  0  0  0  0  0  0  0  0  0
   -1.6320   21.0850   16.5080   C 0  0  0  0  0  0  0  0  0  0  0  0
 31 17  1  0  0  0  0
 45 19  1  0  0  0  0
 46 60  1  0  0  0  0
 65 52  1  0  0  0  0
 12  8  2  0  0  0  0
 49 53  1  0  0  0  0
 59 61  1  0  0  0  0
 62 18  1  0  0  0  0
 44  1  1  0  0  0  0
 61  9  1  0  0  0  0
 55 40  1  0  0  0  0
 32 18  1  0  0  0  0
 61  3  1  0  0  0  0
 54 44  2  0  0  0  0
 24 62  1  0  0  0  0
 30 29  1  0  0  0  0
 48 24  1  0  0  0  0
 45 34  2  0  0  0  0
 10 59  1  0  0  0  0
 37 20  1  0  0  0  0
 52 58  2  0  0  0  0
 12 57  1  0  0  0  0
 64 28  2  0  0  0  0
 56 16  1  0  0  0  0
 17 47  1  0  0  0  0
 57 50  1  0  0  0  0
 38 11  1  0  0  0  0
 57 37  1  0  0  0  0
 29 45  1  0  0  0  0
  3 23  1  0  0  0  0
  1 55  1  0  0  0  0
 46 51  1  0  0  0  0
 18  7  1  0  0  0  0
  3 65  2  0  0  0  0
  5 32  1  0  0  0  0
 63 49  1  0  0  0  0
  1 35  1  0  0  0  0
  5 41  2  0  0  0  0
 26 42  1  0  0  0  0
 60 31  1  0  0  0  0
 39 48  1  0  0  0  0
  9 36  1  0  0  0  0
 47 51  1  0  0  0  0
 37 21  1  0  0  0  0
 19 63  1  0  0  0  0
 13 30  2  0  0  0  0
 50 10  1  0  0  0  0
 32 39  1  0  0  0  0
 57 14  1  0  0  0  0
 31 56  1  0  0  0  0
 25 10  1  0  0  0  0
 26 13  1  0  0  0  0
 40 22  1  0  0  0  0
 11 33  1  0  0  0  0
 21 25  1  0  0  0  0
 17 15  1  0  0  0  0
 49 43  1  0  0  0  0
 40 64  1  0  0  0  0
 29 27  1  0  0  0  0
  6 63  1  0  0  0  0
  7  4  2  0  0  0  0
 64 38  1  0  0  0  0
  7 12  1  0  0  0  0
 13  2  1  0  0  0  0
 58 54  1  0  0  0  0
  5  6  1  0  0  0  0
 38 26  1  0  0  0  0
 43 46  1  0  0  0  0
A    1
C23
A    2
C47
A    3
C17
A    4
O3
A    5
C1
A    6
O1
A    7
C8
A    8
O4
A    9
O7
A   10
C14
A   11
O9
A   12
C9
A   13
C29
A   14
O6
A   15
O13
A   16
C52
A   17
C40
A   18
N7
A   19
C33
A   20
C43
A   21
C12
A   22
C46
A   23
C44
A   24
C5
A   25
C13
A   26
C28
A   27
C48
A   28
O8
A   29
C31
A   30
C30
A   31
C39
A   32
C2
A   33
C51
A   34
O11
A   35
C45
A   36
C50
A   37
C11
A   38
C27
A   39
C3
A   40
C25
A   41
O2
A   42
O10
A   43
C36
A   44
C22
A   45
C32
A   46
C37
A   47
C41
A   48
C4
A   49
C35
A   50
O5
A   51
C42
A   52
C19
A   53
C49
A   54
C21
A   55
C24
A   56
O12
A   57
C10
A   58
C20
A   59
C15
A   60
C38
A   61
C16
A   62
C6
A   63
C34
A   64
C26
A   65
C18
M  END
>  <InstanceId>
4QT2_RAP_A_202

>  <ChemCompId>
RAP

>  <PdbId>
4QT2

>  <ChainId>
A

>  <ResidueNumber>
202

>  <InsertionCode>


>  <Model>
1

>  <AltIds>


>  <MissingHeavyAtoms>
0

>  <ObservedFormula>
C51 N O13

>  <AsymId>
C

>  <SeqNum>
202

>  <Name>
RAPAMYCIN IMMUNOSUPPRESSANT DRUG

>  <SystematicName>
null

>  <Synonyms>


>  <Type>
NON-POLYMER

>  <Formula>
C51 H79 N O13

>  <MolecularWeight>
914.172

>  <ModifiedDate>
2011-06-04

>  <Parent>


>  <OneLetterCode>


>  <SubcomponentList>


>  <AmbiguousFlag>
N

>  <InChI>
null

>  <InChIKey>
null

>  <SMILES>
C[C@@H]1CC[C@H]2C[C@@H](C(=CC=C\C=C\[C@H](C[C@H](C(=O)[C@@H]([C@@H](/C(=C/[C@H](C(=O)C[C@H](OC(=O)[C@@H]3CCCCN3C(=O)C(=O)[C@@]1(O2)O)[C@H](C)C[C@@H]4CC[C@H]([C@@H](C4)OC)O)C)/C)O)OC)C)C)C)OC

$$$$
