4QT3_RAP_A_202
  RCSB PDB05141717003D
Coordinates from PDB:4QT3:A:202 without hydrogens
 65 68  0  0  0  0            999 V2000
   18.7300   14.3800    0.1260   C 0  0  0  0  0  0  0  0  0  0  0  0
   15.6960   12.2960   -3.0930   C 0  0  0  0  0  0  0  0  0  0  0  0
   12.2550   11.0490    1.6250   C 0  0  0  0  0  0  0  0  0  0  0  0
    6.2060   10.5050   -4.2230   O 0  0  0  0  0  0  0  0  0  0  0  0
    8.8030   13.0510   -4.7610   C 0  0  0  0  0  0  0  0  0  0  0  0
    9.7620   12.3200   -4.0200   O 0  0  0  0  0  0  0  0  0  0  0  0
    6.5610   10.9660   -3.1510   C 0  0  0  0  0  0  0  0  0  0  0  0
    5.1990   10.3040   -1.3800   O 0  0  0  0  0  0  0  0  0  0  0  0
   10.7200    9.3140    2.4400   O 0  0  0  0  0  0  0  0  0  0  0  0
    9.3510    9.2820   -0.2210   C 0  0  0  0  0  0  0  0  0  0  0  0
   18.3010   14.7040   -5.5860   O 0  0  0  0  0  0  0  0  0  0  0  0
    6.2670   10.1560   -1.9610   C 0  0  0  0  0  0  0  0  0  0  0  0
   15.3410   13.6890   -3.5460   C 0  0  0  0  0  0  0  0  0  0  0  0
    6.6620    8.2860   -0.5120   O 0  0  0  0  0  0  0  0  0  0  0  0
   13.9990   14.6590  -10.5710   O 0  0  0  0  0  0  0  0  0  0  0  0
   17.0990   13.5090   -8.5480   C 0  0  0  0  0  0  0  0  0  0  0  0
   13.6440   13.5560   -9.7280   C 0  0  0  0  0  0  0  0  0  0  0  0
    7.1890   12.1590   -3.0510   N 0  0  0  0  0  0  0  0  0  0  0  0
   11.9800   12.3040   -3.2070   C 0  0  0  0  0  0  0  0  0  0  0  0
    6.9240    7.3750   -3.2290   C 0  0  0  0  0  0  0  0  0  0  0  0
    9.1240    7.5490   -2.0370   C 0  0  0  0  0  0  0  0  0  0  0  0
   17.0720   16.6750   -1.2590   C 0  0  0  0  0  0  0  0  0  0  0  0
   11.7350   12.1250    2.5420   C 0  0  0  0  0  0  0  0  0  0  0  0
    7.0180   14.1290   -1.6260   C 0  0  0  0  0  0  0  0  0  0  0  0
   10.0940    8.4550   -1.2630   C 0  0  0  0  0  0  0  0  0  0  0  0
   16.1550   14.2750   -4.6750   C 0  0  0  0  0  0  0  0  0  0  0  0
   13.3020   15.0100   -0.7840   C 0  0  0  0  0  0  0  0  0  0  0  0
   18.2250   16.7090   -3.8070   O 0  0  0  0  0  0  0  0  0  0  0  0
   13.4350   13.9380   -1.8640   C 0  0  0  0  0  0  0  0  0  0  0  0
   14.3460   14.4020   -2.9850   C 0  0  0  0  0  0  0  0  0  0  0  0
   14.7060   13.3980   -8.6640   C 0  0  0  0  0  0  0  0  0  0  0  0
    7.3850   12.9620   -4.2810   C 0  0  0  0  0  0  0  0  0  0  0  0
   19.7240   14.5690   -5.4980   C 0  0  0  0  0  0  0  0  0  0  0  0
   11.1940   14.4510   -2.5280   O 0  0  0  0  0  0  0  0  0  0  0  0
   20.0750   13.9730    0.7380   C 0  0  0  0  0  0  0  0  0  0  0  0
   11.6470    8.6670    3.3020   C 0  0  0  0  0  0  0  0  0  0  0  0
    7.9270    8.3240   -2.5840   C 0  0  0  0  0  0  0  0  0  0  0  0
   17.6460   14.4630   -4.3410   C 0  0  0  0  0  0  0  0  0  0  0  0
    6.8270   14.3760   -4.0770   C 0  0  0  0  0  0  0  0  0  0  0  0
   17.6070   15.4120   -1.9320   C 0  0  0  0  0  0  0  0  0  0  0  0
    9.1330   13.6630   -5.7530   O 0  0  0  0  0  0  0  0  0  0  0  0
   15.6630   15.5430   -5.1180   O 0  0  0  0  0  0  0  0  0  0  0  0
   12.7250   11.2290   -6.1650   C 0  0  0  0  0  0  0  0  0  0  0  0
   17.7420   13.2240    0.0660   C 0  0  0  0  0  0  0  0  0  0  0  0
   12.1150   13.6430   -2.5270   C 0  0  0  0  0  0  0  0  0  0  0  0
   12.9830   12.4180   -7.0820   C 0  0  0  0  0  0  0  0  0  0  0  0
   12.2790   13.7680   -9.0770   C 0  0  0  0  0  0  0  0  0  0  0  0
    7.3600   15.0170   -2.8060   C 0  0  0  0  0  0  0  0  0  0  0  0
   11.3690   11.2190   -5.4500   C 0  0  0  0  0  0  0  0  0  0  0  0
    8.2480    9.9500   -0.8330   O 0  0  0  0  0  0  0  0  0  0  0  0
   11.9290   12.5820   -8.1800   C 0  0  0  0  0  0  0  0  0  0  0  0
   14.4690   12.1590    1.2930   C 0  0  0  0  0  0  0  0  0  0  0  0
   11.2110    9.8670   -4.7530   C 0  0  0  0  0  0  0  0  0  0  0  0
   16.6000   13.2330    0.7780   C 0  0  0  0  0  0  0  0  0  0  0  0
   18.9170   14.9600   -1.2800   C 0  0  0  0  0  0  0  0  0  0  0  0
   15.9530   13.1880   -9.3350   O 0  0  0  0  0  0  0  0  0  0  0  0
    7.2740    9.1470   -1.4670   C 0  0  0  0  0  0  0  0  0  0  0  0
   15.6420   12.1280    0.6440   C 0  0  0  0  0  0  0  0  0  0  0  0
   10.2100   10.3920    0.3720   C 0  0  0  0  0  0  0  0  0  0  0  0
   14.3540   12.2370   -7.7490   C 0  0  0  0  0  0  0  0  0  0  0  0
   11.3350    9.8920    1.2870   C 0  0  0  0  0  0  0  0  0  0  0  0
    7.6760   12.7760   -1.8070   C 0  0  0  0  0  0  0  0  0  0  0  0
   11.1320   12.3780   -4.4720   C 0  0  0  0  0  0  0  0  0  0  0  0
   17.8530   15.6160   -3.3950   C 0  0  0  0  0  0  0  0  0  0  0  0
   13.5010   11.0710    1.0900   C 0  0  0  0  0  0  0  0  0  0  0  0
 31 17  1  0  0  0  0
 45 19  1  0  0  0  0
 46 60  1  0  0  0  0
 65 52  1  0  0  0  0
 12  8  2  0  0  0  0
 49 53  1  0  0  0  0
 59 61  1  0  0  0  0
 62 18  1  0  0  0  0
 44  1  1  0  0  0  0
 61  9  1  0  0  0  0
 55 40  1  0  0  0  0
 32 18  1  0  0  0  0
 61  3  1  0  0  0  0
 54 44  2  0  0  0  0
 24 62  1  0  0  0  0
 30 29  1  0  0  0  0
 48 24  1  0  0  0  0
 45 34  2  0  0  0  0
 10 59  1  0  0  0  0
 37 20  1  0  0  0  0
 52 58  2  0  0  0  0
 12 57  1  0  0  0  0
 64 28  2  0  0  0  0
 56 16  1  0  0  0  0
 17 47  1  0  0  0  0
 57 50  1  0  0  0  0
 38 11  1  0  0  0  0
 57 37  1  0  0  0  0
 29 45  1  0  0  0  0
  3 23  1  0  0  0  0
  1 55  1  0  0  0  0
 46 51  1  0  0  0  0
 18  7  1  0  0  0  0
  3 65  2  0  0  0  0
  5 32  1  0  0  0  0
 63 49  1  0  0  0  0
  1 35  1  0  0  0  0
  5 41  2  0  0  0  0
 26 42  1  0  0  0  0
 60 31  1  0  0  0  0
 39 48  1  0  0  0  0
  9 36  1  0  0  0  0
 47 51  1  0  0  0  0
 37 21  1  0  0  0  0
 19 63  1  0  0  0  0
 13 30  2  0  0  0  0
 50 10  1  0  0  0  0
 32 39  1  0  0  0  0
 57 14  1  0  0  0  0
 31 56  1  0  0  0  0
 25 10  1  0  0  0  0
 26 13  1  0  0  0  0
 40 22  1  0  0  0  0
 11 33  1  0  0  0  0
 21 25  1  0  0  0  0
 17 15  1  0  0  0  0
 49 43  1  0  0  0  0
 40 64  1  0  0  0  0
 29 27  1  0  0  0  0
  6 63  1  0  0  0  0
  7  4  2  0  0  0  0
 64 38  1  0  0  0  0
  7 12  1  0  0  0  0
 13  2  1  0  0  0  0
 58 54  1  0  0  0  0
  5  6  1  0  0  0  0
 38 26  1  0  0  0  0
 43 46  1  0  0  0  0
A    1
C23
A    2
C47
A    3
C17
A    4
O3
A    5
C1
A    6
O1
A    7
C8
A    8
O4
A    9
O7
A   10
C14
A   11
O9
A   12
C9
A   13
C29
A   14
O6
A   15
O13
A   16
C52
A   17
C40
A   18
N7
A   19
C33
A   20
C43
A   21
C12
A   22
C46
A   23
C44
A   24
C5
A   25
C13
A   26
C28
A   27
C48
A   28
O8
A   29
C31
A   30
C30
A   31
C39
A   32
C2
A   33
C51
A   34
O11
A   35
C45
A   36
C50
A   37
C11
A   38
C27
A   39
C3
A   40
C25
A   41
O2
A   42
O10
A   43
C36
A   44
C22
A   45
C32
A   46
C37
A   47
C41
A   48
C4
A   49
C35
A   50
O5
A   51
C42
A   52
C19
A   53
C49
A   54
C21
A   55
C24
A   56
O12
A   57
C10
A   58
C20
A   59
C15
A   60
C38
A   61
C16
A   62
C6
A   63
C34
A   64
C26
A   65
C18
M  END
>  <InstanceId>
4QT3_RAP_A_202

>  <ChemCompId>
RAP

>  <PdbId>
4QT3

>  <ChainId>
A

>  <ResidueNumber>
202

>  <InsertionCode>


>  <Model>
1

>  <AltIds>


>  <MissingHeavyAtoms>
0

>  <ObservedFormula>
C51 N O13

>  <AsymId>
C

>  <SeqNum>
202

>  <Name>
RAPAMYCIN IMMUNOSUPPRESSANT DRUG

>  <SystematicName>
null

>  <Synonyms>


>  <Type>
NON-POLYMER

>  <Formula>
C51 H79 N O13

>  <MolecularWeight>
914.172

>  <ModifiedDate>
2011-06-04

>  <Parent>


>  <OneLetterCode>


>  <SubcomponentList>


>  <AmbiguousFlag>
N

>  <InChI>
null

>  <InChIKey>
null

>  <SMILES>
C[C@@H]1CC[C@H]2C[C@@H](C(=CC=C\C=C\[C@H](C[C@H](C(=O)[C@@H]([C@@H](/C(=C/[C@H](C(=O)C[C@H](OC(=O)[C@@H]3CCCCN3C(=O)C(=O)[C@@]1(O2)O)[C@H](C)C[C@@H]4CC[C@H]([C@@H](C4)OC)O)C)/C)O)OC)C)C)C)OC

$$$$
