5FLC_RAP_C_999
  RCSB PDB05141717003D
Coordinates from PDB:5FLC:C:999 without hydrogens
 65 68  0  0  0  0            999 V2000
  195.3550  121.0080  213.3950   C 0  0  0  0  0  0  0  0  0  0  0  0
  197.6780  118.0840  213.6230   C 0  0  0  0  0  0  0  0  0  0  0  0
  191.7140  116.4520  217.5420   C 0  0  0  0  0  0  0  0  0  0  0  0
  195.8850  112.4430  221.0830   O 0  0  0  0  0  0  0  0  0  0  0  0
  198.5710  112.3640  219.4530   C 0  0  0  0  0  0  0  0  0  0  0  0
  197.8010  113.5650  219.6440   O 0  0  0  0  0  0  0  0  0  0  0  0
  195.5400  111.5760  220.2710   C 0  0  0  0  0  0  0  0  0  0  0  0
  194.1630  109.7780  220.3120   O 0  0  0  0  0  0  0  0  0  0  0  0
  193.3350  115.0750  218.5770   O 0  0  0  0  0  0  0  0  0  0  0  0
  191.1950  113.4430  219.6210   C 0  0  0  0  0  0  0  0  0  0  0  0
  199.5370  120.7000  216.6240   O 0  0  0  0  0  0  0  0  0  0  0  0
  194.1840  111.0140  220.4090   C 0  0  0  0  0  0  0  0  0  0  0  0
  197.6070  117.8590  215.1200   C 0  0  0  0  0  0  0  0  0  0  0  0
  192.6750  111.9940  222.1100   O 0  0  0  0  0  0  0  0  0  0  0  0
  201.6090  118.3740  219.1730   O 0  0  0  0  0  0  0  0  0  0  0  0
  198.2980  120.7260  219.7620   C 0  0  0  0  0  0  0  0  0  0  0  0
  201.2030  119.0440  220.3750   C 0  0  0  0  0  0  0  0  0  0  0  0
  196.4020  111.1060  219.3130   N 0  0  0  0  0  0  0  0  0  0  0  0
  197.9350  115.9240  219.1080   C 0  0  0  0  0  0  0  0  0  0  0  0
  191.6980  110.0500  219.1950   C 0  0  0  0  0  0  0  0  0  0  0  0
  190.3700  111.4290  220.7120   C 0  0  0  0  0  0  0  0  0  0  0  0
  196.2650  122.2810  216.5230   C 0  0  0  0  0  0  0  0  0  0  0  0
  190.7710  117.5220  217.9740   C 0  0  0  0  0  0  0  0  0  0  0  0
  196.8900  109.7350  217.3050   C 0  0  0  0  0  0  0  0  0  0  0  0
  190.2670  112.9670  220.7420   C 0  0  0  0  0  0  0  0  0  0  0  0
  198.2500  118.7340  216.2120   C 0  0  0  0  0  0  0  0  0  0  0  0
  195.8050  114.8590  216.4810   C 0  0  0  0  0  0  0  0  0  0  0  0
  198.3530  120.8790  213.9130   O 0  0  0  0  0  0  0  0  0  0  0  0
  196.6290  116.1060  216.8060   C 0  0  0  0  0  0  0  0  0  0  0  0
  196.9530  116.7150  215.4500   C 0  0  0  0  0  0  0  0  0  0  0  0
  199.6870  118.9790  220.5120   C 0  0  0  0  0  0  0  0  0  0  0  0
  197.8550  111.0550  219.6950   C 0  0  0  0  0  0  0  0  0  0  0  0
  199.7480  122.0900  216.8840   C 0  0  0  0  0  0  0  0  0  0  0  0
  198.8370  115.1850  217.0310   O 0  0  0  0  0  0  0  0  0  0  0  0
  194.1220  121.2490  212.5350   C 0  0  0  0  0  0  0  0  0  0  0  0
  193.9590  116.1140  219.3220   C 0  0  0  0  0  0  0  0  0  0  0  0
  191.8250  110.9050  220.5080   C 0  0  0  0  0  0  0  0  0  0  0  0
  198.2120  120.2960  216.2430   C 0  0  0  0  0  0  0  0  0  0  0  0
  198.5940  109.9020  219.0220   C 0  0  0  0  0  0  0  0  0  0  0  0
  196.8830  122.2660  215.1290   C 0  0  0  0  0  0  0  0  0  0  0  0
  199.7300  112.4390  219.1440   O 0  0  0  0  0  0  0  0  0  0  0  0
  199.6280  118.3360  216.3030   O 0  0  0  0  0  0  0  0  0  0  0  0
  199.4660  115.6330  222.2490   C 0  0  0  0  0  0  0  0  0  0  0  0
  194.9670  119.8610  214.3120   C 0  0  0  0  0  0  0  0  0  0  0  0
  197.8670  115.6900  217.5920   C 0  0  0  0  0  0  0  0  0  0  0  0
  200.1260  116.7650  221.4930   C 0  0  0  0  0  0  0  0  0  0  0  0
  201.9050  118.4950  221.6360   C 0  0  0  0  0  0  0  0  0  0  0  0
  198.3690  109.9250  217.5270   C 0  0  0  0  0  0  0  0  0  0  0  0
  198.3480  114.9020  221.5370   C 0  0  0  0  0  0  0  0  0  0  0  0
  192.5490  112.8570  219.6400   O 0  0  0  0  0  0  0  0  0  0  0  0
  201.5470  117.0410  221.9600   C 0  0  0  0  0  0  0  0  0  0  0  0
  192.4060  117.6360  215.4160   C 0  0  0  0  0  0  0  0  0  0  0  0
  197.0100  115.4290  221.9740   C 0  0  0  0  0  0  0  0  0  0  0  0
  193.9240  119.0400  214.0420   C 0  0  0  0  0  0  0  0  0  0  0  0
  195.7670  122.3280  214.0760   C 0  0  0  0  0  0  0  0  0  0  0  0
  199.1100  120.2460  220.8180   O 0  0  0  0  0  0  0  0  0  0  0  0
  193.0050  111.9510  220.7040   C 0  0  0  0  0  0  0  0  0  0  0  0
  193.6400  117.9550  214.9900   C 0  0  0  0  0  0  0  0  0  0  0  0
  191.2310  114.9810  219.5590   C 0  0  0  0  0  0  0  0  0  0  0  0
  199.3440  118.0510  221.6610   C 0  0  0  0  0  0  0  0  0  0  0  0
  191.9670  115.1850  218.2690   C 0  0  0  0  0  0  0  0  0  0  0  0
  196.0590  110.8590  217.8910   C 0  0  0  0  0  0  0  0  0  0  0  0
  198.4630  114.7700  220.0070   C 0  0  0  0  0  0  0  0  0  0  0  0
  197.8530  121.0990  215.0030   C 0  0  0  0  0  0  0  0  0  0  0  0
  192.3600  116.5370  216.3820   C 0  0  0  0  0  0  0  0  0  0  0  0
 31 17  1  0  0  0  0
 45 19  1  0  0  0  0
 46 60  1  0  0  0  0
 65 52  1  0  0  0  0
 12  8  2  0  0  0  0
 49 53  1  0  0  0  0
 59 61  1  0  0  0  0
 62 18  1  0  0  0  0
 44  1  1  0  0  0  0
 61  9  1  0  0  0  0
 55 40  1  0  0  0  0
 32 18  1  0  0  0  0
 61  3  1  0  0  0  0
 54 44  2  0  0  0  0
 24 62  1  0  0  0  0
 30 29  1  0  0  0  0
 48 24  1  0  0  0  0
 45 34  2  0  0  0  0
 10 59  1  0  0  0  0
 37 20  1  0  0  0  0
 52 58  2  0  0  0  0
 12 57  1  0  0  0  0
 64 28  2  0  0  0  0
 56 16  1  0  0  0  0
 17 47  1  0  0  0  0
 57 50  1  0  0  0  0
 38 11  1  0  0  0  0
 57 37  1  0  0  0  0
 29 45  1  0  0  0  0
  3 23  1  0  0  0  0
  1 55  1  0  0  0  0
 46 51  1  0  0  0  0
 18  7  1  0  0  0  0
  3 65  2  0  0  0  0
  5 32  1  0  0  0  0
 63 49  1  0  0  0  0
  1 35  1  0  0  0  0
  5 41  2  0  0  0  0
 26 42  1  0  0  0  0
 60 31  1  0  0  0  0
 39 48  1  0  0  0  0
  9 36  1  0  0  0  0
 47 51  1  0  0  0  0
 37 21  1  0  0  0  0
 19 63  1  0  0  0  0
 13 30  2  0  0  0  0
 50 10  1  0  0  0  0
 32 39  1  0  0  0  0
 57 14  1  0  0  0  0
 31 56  1  0  0  0  0
 25 10  1  0  0  0  0
 26 13  1  0  0  0  0
 40 22  1  0  0  0  0
 11 33  1  0  0  0  0
 21 25  1  0  0  0  0
 17 15  1  0  0  0  0
 49 43  1  0  0  0  0
 40 64  1  0  0  0  0
 29 27  1  0  0  0  0
  6 63  1  0  0  0  0
  7  4  2  0  0  0  0
 64 38  1  0  0  0  0
  7 12  1  0  0  0  0
 13  2  1  0  0  0  0
 58 54  1  0  0  0  0
  5  6  1  0  0  0  0
 38 26  1  0  0  0  0
 43 46  1  0  0  0  0
A    1
C23
A    2
C47
A    3
C17
A    4
O3
A    5
C1
A    6
O1
A    7
C8
A    8
O4
A    9
O7
A   10
C14
A   11
O9
A   12
C9
A   13
C29
A   14
O6
A   15
O13
A   16
C52
A   17
C40
A   18
N7
A   19
C33
A   20
C43
A   21
C12
A   22
C46
A   23
C44
A   24
C5
A   25
C13
A   26
C28
A   27
C48
A   28
O8
A   29
C31
A   30
C30
A   31
C39
A   32
C2
A   33
C51
A   34
O11
A   35
C45
A   36
C50
A   37
C11
A   38
C27
A   39
C3
A   40
C25
A   41
O2
A   42
O10
A   43
C36
A   44
C22
A   45
C32
A   46
C37
A   47
C41
A   48
C4
A   49
C35
A   50
O5
A   51
C42
A   52
C19
A   53
C49
A   54
C21
A   55
C24
A   56
O12
A   57
C10
A   58
C20
A   59
C15
A   60
C38
A   61
C16
A   62
C6
A   63
C34
A   64
C26
A   65
C18
M  END
>  <InstanceId>
5FLC_RAP_C_999

>  <ChemCompId>
RAP

>  <PdbId>
5FLC

>  <ChainId>
C

>  <ResidueNumber>
999

>  <InsertionCode>


>  <Model>
1

>  <AltIds>


>  <MissingHeavyAtoms>
0

>  <ObservedFormula>
C51 N O13

>  <AsymId>
M

>  <SeqNum>
999

>  <Name>
RAPAMYCIN IMMUNOSUPPRESSANT DRUG

>  <SystematicName>
null

>  <Synonyms>


>  <Type>
NON-POLYMER

>  <Formula>
C51 H79 N O13

>  <MolecularWeight>
914.172

>  <ModifiedDate>
2011-06-04

>  <Parent>


>  <OneLetterCode>


>  <SubcomponentList>


>  <AmbiguousFlag>
N

>  <InChI>
null

>  <InChIKey>
null

>  <SMILES>
C[C@@H]1CC[C@H]2C[C@@H](C(=CC=C\C=C\[C@H](C[C@H](C(=O)[C@@H]([C@@H](/C(=C/[C@H](C(=O)C[C@H](OC(=O)[C@@H]3CCCCN3C(=O)C(=O)[C@@]1(O2)O)[C@H](C)C[C@@H]4CC[C@H]([C@@H](C4)OC)O)C)/C)O)OC)C)C)C)OC

$$$$
