5GPG_RAP_A_301
  RCSB PDB05141717003D
Coordinates from PDB:5GPG:A:301 without hydrogens
 65 68  0  0  0  0            999 V2000
  -13.4860   -3.4360   12.2200   C 0  0  0  0  0  0  0  0  0  0  0  0
  -15.9280    0.5910   11.2810   C 0  0  0  0  0  0  0  0  0  0  0  0
  -14.6590   -0.2750    5.6860   C 0  0  0  0  0  0  0  0  0  0  0  0
  -20.7970    5.2180    4.4960   O 0  0  0  0  0  0  0  0  0  0  0  0
  -21.1960    2.8330    7.2010   C 0  0  0  0  0  0  0  0  0  0  0  0
  -19.7740    2.6630    7.3580   O 0  0  0  0  0  0  0  0  0  0  0  0
  -20.3410    4.1330    4.1690   C 0  0  0  0  0  0  0  0  0  0  0  0
  -19.7890    3.8130    1.9340   O 0  0  0  0  0  0  0  0  0  0  0  0
  -14.1430    0.5690    3.5200   O 0  0  0  0  0  0  0  0  0  0  0  0
  -16.1050    2.8750    4.1110   C 0  0  0  0  0  0  0  0  0  0  0  0
  -17.0740   -0.2700   15.3600   O 0  0  0  0  0  0  0  0  0  0  0  0
  -19.3850    4.0560    3.0600   C 0  0  0  0  0  0  0  0  0  0  0  0
  -17.2030   -0.1190   11.6480   C 0  0  0  0  0  0  0  0  0  0  0  0
  -17.2080    4.4270    2.0520   O 0  0  0  0  0  0  0  0  0  0  0  0
  -21.9390    3.8420   15.1350   O 0  0  0  0  0  0  0  0  0  0  0  0
  -18.1810    3.1910   15.9830   C 0  0  0  0  0  0  0  0  0  0  0  0
  -21.0760    4.2290   14.0510   C 0  0  0  0  0  0  0  0  0  0  0  0
  -20.7070    2.9840    4.7640   N 0  0  0  0  0  0  0  0  0  0  0  0
  -18.0760    1.6670    8.6570   C 0  0  0  0  0  0  0  0  0  0  0  0
  -17.9020    6.7390    3.6400   C 0  0  0  0  0  0  0  0  0  0  0  0
  -16.0540    5.3300    4.5780   C 0  0  0  0  0  0  0  0  0  0  0  0
  -16.6210   -4.0930   12.4600   C 0  0  0  0  0  0  0  0  0  0  0  0
  -15.3410   -1.5110    5.1450   C 0  0  0  0  0  0  0  0  0  0  0  0
  -21.2660    0.6640    4.2090   C 0  0  0  0  0  0  0  0  0  0  0  0
  -15.6300    3.9520    5.0770   C 0  0  0  0  0  0  0  0  0  0  0  0
  -17.6590   -0.0740   13.0770   C 0  0  0  0  0  0  0  0  0  0  0  0
  -17.7600   -2.1950    8.6910   C 0  0  0  0  0  0  0  0  0  0  0  0
  -17.1870   -2.8180   14.8050   O 0  0  0  0  0  0  0  0  0  0  0  0
  -17.5560   -0.7980    9.2570   C 0  0  0  0  0  0  0  0  0  0  0  0
  -17.9450   -0.7560   10.7200   C 0  0  0  0  0  0  0  0  0  0  0  0
  -19.7070    3.5730   14.2260   C 0  0  0  0  0  0  0  0  0  0  0  0
  -21.7400    3.0440    5.8120   C 0  0  0  0  0  0  0  0  0  0  0  0
  -16.0030    0.1160   16.2290   C 0  0  0  0  0  0  0  0  0  0  0  0
  -19.4250   -0.1660    7.9250   O 0  0  0  0  0  0  0  0  0  0  0  0
  -12.1040   -3.7450   12.7870   C 0  0  0  0  0  0  0  0  0  0  0  0
  -12.8400   -0.0280    3.5400   C 0  0  0  0  0  0  0  0  0  0  0  0
  -17.5450    5.3800    4.2380   C 0  0  0  0  0  0  0  0  0  0  0  0
  -16.6340   -0.6500   14.0520   C 0  0  0  0  0  0  0  0  0  0  0  0
  -22.8540    2.0430    5.4790   C 0  0  0  0  0  0  0  0  0  0  0  0
  -15.8700   -2.8240   12.8540   C 0  0  0  0  0  0  0  0  0  0  0  0
  -21.9180    2.8210    8.1930   O 0  0  0  0  0  0  0  0  0  0  0  0
  -18.8910   -0.7770   13.2310   O 0  0  0  0  0  0  0  0  0  0  0  0
  -18.4350    4.0540   10.6230   C 0  0  0  0  0  0  0  0  0  0  0  0
  -13.4040   -2.2560   11.2770   C 0  0  0  0  0  0  0  0  0  0  0  0
  -18.4360    0.1980    8.5450   C 0  0  0  0  0  0  0  0  0  0  0  0
  -19.4110    3.5580   11.6890   C 0  0  0  0  0  0  0  0  0  0  0  0
  -21.6990    3.8310   12.7150   C 0  0  0  0  0  0  0  0  0  0  0  0
  -22.2950    0.6340    5.3290   C 0  0  0  0  0  0  0  0  0  0  0  0
  -18.9510    3.9690    9.1820   C 0  0  0  0  0  0  0  0  0  0  0  0
  -17.5060    3.0250    3.8970   O 0  0  0  0  0  0  0  0  0  0  0  0
  -20.7780    4.2250   11.5590   C 0  0  0  0  0  0  0  0  0  0  0  0
  -14.1930   -1.3780    7.8430   C 0  0  0  0  0  0  0  0  0  0  0  0
  -17.9310    4.6370    8.2620   C 0  0  0  0  0  0  0  0  0  0  0  0
  -13.7180   -2.4010    9.9880   C 0  0  0  0  0  0  0  0  0  0  0  0
  -14.4510   -3.1150   13.3530   C 0  0  0  0  0  0  0  0  0  0  0  0
  -19.1070    4.1060   15.4050   O 0  0  0  0  0  0  0  0  0  0  0  0
  -17.9020    4.2400    3.2910   C 0  0  0  0  0  0  0  0  0  0  0  0
  -13.6530   -1.2720    9.0620   C 0  0  0  0  0  0  0  0  0  0  0  0
  -15.9840    1.4940    4.7320   C 0  0  0  0  0  0  0  0  0  0  0  0
  -18.7950    3.8980   13.0520   C 0  0  0  0  0  0  0  0  0  0  0  0
  -14.5690    0.9460    4.8230   C 0  0  0  0  0  0  0  0  0  0  0  0
  -20.1400    1.6490    4.5080   C 0  0  0  0  0  0  0  0  0  0  0  0
  -19.3060    2.5580    8.7010   C 0  0  0  0  0  0  0  0  0  0  0  0
  -16.6100   -2.1460   13.9630   C 0  0  0  0  0  0  0  0  0  0  0  0
  -14.1340   -0.2390    6.9280   C 0  0  0  0  0  0  0  0  0  0  0  0
 31 17  1  0  0  0  0
 45 19  1  0  0  0  0
 46 60  1  0  0  0  0
 65 52  1  0  0  0  0
 12  8  2  0  0  0  0
 49 53  1  0  0  0  0
 59 61  1  0  0  0  0
 62 18  1  0  0  0  0
 44  1  1  0  0  0  0
 61  9  1  0  0  0  0
 55 40  1  0  0  0  0
 32 18  1  0  0  0  0
 61  3  1  0  0  0  0
 54 44  2  0  0  0  0
 24 62  1  0  0  0  0
 30 29  1  0  0  0  0
 48 24  1  0  0  0  0
 45 34  2  0  0  0  0
 10 59  1  0  0  0  0
 37 20  1  0  0  0  0
 52 58  2  0  0  0  0
 12 57  1  0  0  0  0
 64 28  2  0  0  0  0
 56 16  1  0  0  0  0
 17 47  1  0  0  0  0
 57 50  1  0  0  0  0
 38 11  1  0  0  0  0
 57 37  1  0  0  0  0
 29 45  1  0  0  0  0
  3 23  1  0  0  0  0
  1 55  1  0  0  0  0
 46 51  1  0  0  0  0
 18  7  1  0  0  0  0
  3 65  2  0  0  0  0
  5 32  1  0  0  0  0
 63 49  1  0  0  0  0
  1 35  1  0  0  0  0
  5 41  2  0  0  0  0
 26 42  1  0  0  0  0
 60 31  1  0  0  0  0
 39 48  1  0  0  0  0
  9 36  1  0  0  0  0
 47 51  1  0  0  0  0
 37 21  1  0  0  0  0
 19 63  1  0  0  0  0
 13 30  2  0  0  0  0
 50 10  1  0  0  0  0
 32 39  1  0  0  0  0
 57 14  1  0  0  0  0
 31 56  1  0  0  0  0
 25 10  1  0  0  0  0
 26 13  1  0  0  0  0
 40 22  1  0  0  0  0
 11 33  1  0  0  0  0
 21 25  1  0  0  0  0
 17 15  1  0  0  0  0
 49 43  1  0  0  0  0
 40 64  1  0  0  0  0
 29 27  1  0  0  0  0
  6 63  1  0  0  0  0
  7  4  2  0  0  0  0
 64 38  1  0  0  0  0
  7 12  1  0  0  0  0
 13  2  1  0  0  0  0
 58 54  1  0  0  0  0
  5  6  1  0  0  0  0
 38 26  1  0  0  0  0
 43 46  1  0  0  0  0
A    1
C23
A    2
C47
A    3
C17
A    4
O3
A    5
C1
A    6
O1
A    7
C8
A    8
O4
A    9
O7
A   10
C14
A   11
O9
A   12
C9
A   13
C29
A   14
O6
A   15
O13
A   16
C52
A   17
C40
A   18
N7
A   19
C33
A   20
C43
A   21
C12
A   22
C46
A   23
C44
A   24
C5
A   25
C13
A   26
C28
A   27
C48
A   28
O8
A   29
C31
A   30
C30
A   31
C39
A   32
C2
A   33
C51
A   34
O11
A   35
C45
A   36
C50
A   37
C11
A   38
C27
A   39
C3
A   40
C25
A   41
O2
A   42
O10
A   43
C36
A   44
C22
A   45
C32
A   46
C37
A   47
C41
A   48
C4
A   49
C35
A   50
O5
A   51
C42
A   52
C19
A   53
C49
A   54
C21
A   55
C24
A   56
O12
A   57
C10
A   58
C20
A   59
C15
A   60
C38
A   61
C16
A   62
C6
A   63
C34
A   64
C26
A   65
C18
M  END
>  <InstanceId>
5GPG_RAP_A_301

>  <ChemCompId>
RAP

>  <PdbId>
5GPG

>  <ChainId>
A

>  <ResidueNumber>
301

>  <InsertionCode>


>  <Model>
1

>  <AltIds>


>  <MissingHeavyAtoms>
0

>  <ObservedFormula>
C51 N O13

>  <AsymId>
C

>  <SeqNum>
301

>  <Name>
RAPAMYCIN IMMUNOSUPPRESSANT DRUG

>  <SystematicName>
null

>  <Synonyms>


>  <Type>
NON-POLYMER

>  <Formula>
C51 H79 N O13

>  <MolecularWeight>
914.172

>  <ModifiedDate>
2011-06-04

>  <Parent>


>  <OneLetterCode>


>  <SubcomponentList>


>  <AmbiguousFlag>
N

>  <InChI>
null

>  <InChIKey>
null

>  <SMILES>
C[C@@H]1CC[C@H]2C[C@@H](C(=CC=C\C=C\[C@H](C[C@H](C(=O)[C@@H]([C@@H](/C(=C/[C@H](C(=O)C[C@H](OC(=O)[C@@H]3CCCCN3C(=O)C(=O)[C@@]1(O2)O)[C@H](C)C[C@@H]4CC[C@H]([C@@H](C4)OC)O)C)/C)O)OC)C)C)C)OC

$$$$
