5HKG_RAP_A_201
  RCSB PDB05141717003D
Coordinates from PDB:5HKG:A:201 without hydrogens
 65 68  0  0  0  0            999 V2000
   -0.2570  -18.4200  -10.4210   C 0  0  0  0  0  0  0  0  0  0  0  0
    3.5540  -15.5270  -12.1220   C 0  0  0  0  0  0  0  0  0  0  0  0
   -0.8890  -12.4540  -14.8000   C 0  0  0  0  0  0  0  0  0  0  0  0
    4.8070   -6.1850  -14.8720   O 0  0  0  0  0  0  0  0  0  0  0  0
    4.8300   -8.4460  -11.9120   C 0  0  0  0  0  0  0  0  0  0  0  0
    4.3360   -9.4420  -12.7090   O 0  0  0  0  0  0  0  0  0  0  0  0
    3.6730   -6.5340  -14.5560   C 0  0  0  0  0  0  0  0  0  0  0  0
    1.9100   -5.4130  -15.6030   O 0  0  0  0  0  0  0  0  0  0  0  0
   -1.1580  -11.2270  -16.8910   O 0  0  0  0  0  0  0  0  0  0  0  0
    1.2930   -9.6890  -16.5020   C 0  0  0  0  0  0  0  0  0  0  0  0
    5.1670  -17.6240   -8.6660   O 0  0  0  0  0  0  0  0  0  0  0  0
    2.6170   -6.4040  -15.6030   C 0  0  0  0  0  0  0  0  0  0  0  0
    3.5370  -14.9560  -10.7330   C 0  0  0  0  0  0  0  0  0  0  0  0
    1.6420   -7.0430  -17.6600   O 0  0  0  0  0  0  0  0  0  0  0  0
    9.8570  -13.1970   -8.0010   O 0  0  0  0  0  0  0  0  0  0  0  0
    8.4660  -16.5520   -9.5940   C 0  0  0  0  0  0  0  0  0  0  0  0
    9.3980  -13.0440   -9.3460   C 0  0  0  0  0  0  0  0  0  0  0  0
    3.3430   -6.9890  -13.3300   N 0  0  0  0  0  0  0  0  0  0  0  0
    3.5960  -11.7300  -12.6890   C 0  0  0  0  0  0  0  0  0  0  0  0
    4.5440   -7.2550  -18.0670   C 0  0  0  0  0  0  0  0  0  0  0  0
    3.3820   -9.4660  -17.8780   C 0  0  0  0  0  0  0  0  0  0  0  0
    0.4550  -16.2620   -8.1830   C 0  0  0  0  0  0  0  0  0  0  0  0
   -2.0310  -11.7480  -14.1130   C 0  0  0  0  0  0  0  0  0  0  0  0
    1.5270   -6.5750  -11.7030   C 0  0  0  0  0  0  0  0  0  0  0  0
    2.5340  -10.3900  -17.0080   C 0  0  0  0  0  0  0  0  0  0  0  0
    4.4580  -15.6530   -9.7190   C 0  0  0  0  0  0  0  0  0  0  0  0
    0.5320  -12.8770  -10.6420   C 0  0  0  0  0  0  0  0  0  0  0  0
    2.9540  -17.2300   -7.2340   O 0  0  0  0  0  0  0  0  0  0  0  0
    1.8940  -13.0930  -11.3080   C 0  0  0  0  0  0  0  0  0  0  0  0
    2.8090  -13.8920  -10.4120   C 0  0  0  0  0  0  0  0  0  0  0  0
    8.4260  -14.1520   -9.7260   C 0  0  0  0  0  0  0  0  0  0  0  0
    4.3760   -7.0410  -12.2870   C 0  0  0  0  0  0  0  0  0  0  0  0
    5.1650  -19.0600   -8.6270   C 0  0  0  0  0  0  0  0  0  0  0  0
    2.3720  -10.7810  -10.8740   O 0  0  0  0  0  0  0  0  0  0  0  0
   -0.5940  -19.8660  -10.7960   C 0  0  0  0  0  0  0  0  0  0  0  0
   -1.6900  -12.2790  -17.7140   C 0  0  0  0  0  0  0  0  0  0  0  0
    3.7120   -8.1600  -17.1600   C 0  0  0  0  0  0  0  0  0  0  0  0
    4.0450  -17.0810   -9.3290   C 0  0  0  0  0  0  0  0  0  0  0  0
    3.9350   -6.2590  -11.0410   C 0  0  0  0  0  0  0  0  0  0  0  0
    1.4570  -16.9790   -9.0940   C 0  0  0  0  0  0  0  0  0  0  0  0
    5.5930   -8.6370  -11.0140   O 0  0  0  0  0  0  0  0  0  0  0  0
    4.6460  -14.9110   -8.5260   O 0  0  0  0  0  0  0  0  0  0  0  0
    6.7510  -12.4160  -12.7990   C 0  0  0  0  0  0  0  0  0  0  0  0
    0.0720  -17.5850  -11.6230   C 0  0  0  0  0  0  0  0  0  0  0  0
    2.5930  -11.7600  -11.5640   C 0  0  0  0  0  0  0  0  0  0  0  0
    7.2400  -12.5790  -11.3570   C 0  0  0  0  0  0  0  0  0  0  0  0
    8.7220  -11.6870   -9.4940   C 0  0  0  0  0  0  0  0  0  0  0  0
    2.5400   -6.6910  -10.5720   C 0  0  0  0  0  0  0  0  0  0  0  0
    6.0460  -11.1090  -13.2200   C 0  0  0  0  0  0  0  0  0  0  0  0
    1.6710   -8.4710  -15.8100   O 0  0  0  0  0  0  0  0  0  0  0  0
    8.1830  -11.4620  -10.9140   C 0  0  0  0  0  0  0  0  0  0  0  0
   -0.8640  -14.5530  -13.4140   C 0  0  0  0  0  0  0  0  0  0  0  0
    5.7610  -11.1050  -14.7170   C 0  0  0  0  0  0  0  0  0  0  0  0
   -0.6680  -16.5530  -12.0420   C 0  0  0  0  0  0  0  0  0  0  0  0
    0.9590  -18.3830   -9.4980   C 0  0  0  0  0  0  0  0  0  0  0  0
    9.2170  -15.3440   -9.6420   O 0  0  0  0  0  0  0  0  0  0  0  0
    2.4120   -7.5520  -16.6140   C 0  0  0  0  0  0  0  0  0  0  0  0
   -0.2870  -15.7190  -13.1580   C 0  0  0  0  0  0  0  0  0  0  0  0
    0.5010  -10.4410  -15.4540   C 0  0  0  0  0  0  0  0  0  0  0  0
    7.9290  -13.9370  -11.1520   C 0  0  0  0  0  0  0  0  0  0  0  0
   -0.2040  -11.7050  -15.9330   C 0  0  0  0  0  0  0  0  0  0  0  0
    1.9780   -7.3650  -12.9200   C 0  0  0  0  0  0  0  0  0  0  0  0
    4.7810  -10.8080  -12.4210   C 0  0  0  0  0  0  0  0  0  0  0  0
    2.8240  -17.0790   -8.4340   C 0  0  0  0  0  0  0  0  0  0  0  0
   -0.4350  -13.6590  -14.4540   C 0  0  0  0  0  0  0  0  0  0  0  0
 31 17  1  0  0  0  0
 45 19  1  0  0  0  0
 46 60  1  0  0  0  0
 65 52  1  0  0  0  0
 12  8  2  0  0  0  0
 49 53  1  0  0  0  0
 59 61  1  0  0  0  0
 62 18  1  0  0  0  0
 44  1  1  0  0  0  0
 61  9  1  0  0  0  0
 55 40  1  0  0  0  0
 32 18  1  0  0  0  0
 61  3  1  0  0  0  0
 54 44  2  0  0  0  0
 24 62  1  0  0  0  0
 30 29  1  0  0  0  0
 48 24  1  0  0  0  0
 45 34  2  0  0  0  0
 10 59  1  0  0  0  0
 37 20  1  0  0  0  0
 52 58  2  0  0  0  0
 12 57  1  0  0  0  0
 64 28  2  0  0  0  0
 56 16  1  0  0  0  0
 17 47  1  0  0  0  0
 57 50  1  0  0  0  0
 38 11  1  0  0  0  0
 57 37  1  0  0  0  0
 29 45  1  0  0  0  0
  3 23  1  0  0  0  0
  1 55  1  0  0  0  0
 46 51  1  0  0  0  0
 18  7  1  0  0  0  0
  3 65  2  0  0  0  0
  5 32  1  0  0  0  0
 63 49  1  0  0  0  0
  1 35  1  0  0  0  0
  5 41  2  0  0  0  0
 26 42  1  0  0  0  0
 60 31  1  0  0  0  0
 39 48  1  0  0  0  0
  9 36  1  0  0  0  0
 47 51  1  0  0  0  0
 37 21  1  0  0  0  0
 19 63  1  0  0  0  0
 13 30  2  0  0  0  0
 50 10  1  0  0  0  0
 32 39  1  0  0  0  0
 57 14  1  0  0  0  0
 31 56  1  0  0  0  0
 25 10  1  0  0  0  0
 26 13  1  0  0  0  0
 40 22  1  0  0  0  0
 11 33  1  0  0  0  0
 21 25  1  0  0  0  0
 17 15  1  0  0  0  0
 49 43  1  0  0  0  0
 40 64  1  0  0  0  0
 29 27  1  0  0  0  0
  6 63  1  0  0  0  0
  7  4  2  0  0  0  0
 64 38  1  0  0  0  0
  7 12  1  0  0  0  0
 13  2  1  0  0  0  0
 58 54  1  0  0  0  0
  5  6  1  0  0  0  0
 38 26  1  0  0  0  0
 43 46  1  0  0  0  0
A    1
C23
A    2
C47
A    3
C17
A    4
O3
A    5
C1
A    6
O1
A    7
C8
A    8
O4
A    9
O7
A   10
C14
A   11
O9
A   12
C9
A   13
C29
A   14
O6
A   15
O13
A   16
C52
A   17
C40
A   18
N7
A   19
C33
A   20
C43
A   21
C12
A   22
C46
A   23
C44
A   24
C5
A   25
C13
A   26
C28
A   27
C48
A   28
O8
A   29
C31
A   30
C30
A   31
C39
A   32
C2
A   33
C51
A   34
O11
A   35
C45
A   36
C50
A   37
C11
A   38
C27
A   39
C3
A   40
C25
A   41
O2
A   42
O10
A   43
C36
A   44
C22
A   45
C32
A   46
C37
A   47
C41
A   48
C4
A   49
C35
A   50
O5
A   51
C42
A   52
C19
A   53
C49
A   54
C21
A   55
C24
A   56
O12
A   57
C10
A   58
C20
A   59
C15
A   60
C38
A   61
C16
A   62
C6
A   63
C34
A   64
C26
A   65
C18
M  END
>  <InstanceId>
5HKG_RAP_A_201

>  <ChemCompId>
RAP

>  <PdbId>
5HKG

>  <ChainId>
A

>  <ResidueNumber>
201

>  <InsertionCode>


>  <Model>
1

>  <AltIds>


>  <MissingHeavyAtoms>
0

>  <ObservedFormula>
C51 N O13

>  <AsymId>
B

>  <SeqNum>
201

>  <Name>
RAPAMYCIN IMMUNOSUPPRESSANT DRUG

>  <SystematicName>
null

>  <Synonyms>


>  <Type>
NON-POLYMER

>  <Formula>
C51 H79 N O13

>  <MolecularWeight>
914.172

>  <ModifiedDate>
2011-06-04

>  <Parent>


>  <OneLetterCode>


>  <SubcomponentList>


>  <AmbiguousFlag>
N

>  <InChI>
null

>  <InChIKey>
null

>  <SMILES>
C[C@@H]1CC[C@H]2C[C@@H](C(=CC=C\C=C\[C@H](C[C@H](C(=O)[C@@H]([C@@H](/C(=C/[C@H](C(=O)C[C@H](OC(=O)[C@@H]3CCCCN3C(=O)C(=O)[C@@]1(O2)O)[C@H](C)C[C@@H]4CC[C@H]([C@@H](C4)OC)O)C)/C)O)OC)C)C)C)OC

$$$$
